data_IRMOF10_interpen_symm_ligand4lp_label_c_2.

_audit_creation_method             'generated by an auxiliary program of Tobunporous'

_symmetry_space_group_name_H-M     'P 1'
_symmetry_Int_Tables_number        1
_symmetry_cell_setting             triclinic

_cell_length_a                    22.6523
_cell_length_b                    22.6523
_cell_length_c                    65.9502
_cell_angle_alpha                 90.0000
_cell_angle_beta                  90.0000
_cell_angle_gamma                 120.0000

loop_
_atom_site_label
_atom_site_fract_x
_atom_site_fract_y
_atom_site_fract_z
_atom_site_occupancy
O1       0.00000    -0.00000   0.62500   1.00
Zn1      0.00000    -0.00000   0.59589   1.00
Zn1      0.94848    1.04288    0.63392   1.00
Zn1      0.09439    0.05152    0.63392   1.00
Zn1      -0.04288   0.90561    0.63392   1.00
O2       0.93860    0.02610    0.58587   1.00
O2       0.08750    0.06140    0.58587   1.00
O2       -0.02610   0.91250    0.58587   1.00
O2       0.91305    0.07161    0.61181   1.00
O2       0.00462    0.12022    0.65110   1.00
O2       0.87413    0.98074    0.65071   1.00
O2       0.15856    0.08695    0.61181   1.00
O2       0.10660    0.12587    0.65071   1.00
O2       0.11559    0.99538    0.65110   1.00
O2       -0.07161   0.84144    0.61181   1.00
O2       0.87978    0.88441    0.65110   1.00
O2       0.01926    0.89340    0.65071   1.00
C1       0.91390    0.06020    0.59358   1.00
C1       0.14630    0.08610    0.59358   1.00
C1       -0.06020   0.85370    0.59358   1.00
C1       0.06663    0.14397    0.65673   1.00
C1       0.85603    0.92267    0.65673   1.00
C1       0.07733    0.93337    0.65673   1.00
O1       -0.00000   0.00000    0.87500   1.00
Zn1      -0.00000   0.00000    0.90411   1.00
Zn1      1.04288    0.94848    0.86608   1.00
Zn1      0.05152    0.09439    0.86608   1.00
Zn1      0.90561    -0.04288   0.86608   1.00
O2       0.02610    0.93860    0.91413   1.00
O2       0.06140    0.08750    0.91413   1.00
O2       0.91250    -0.02610   0.91413   1.00
O2       0.07161    0.91305    0.88819   1.00
O2       0.12022    0.00462    0.84890   1.00
O2       0.98074    0.87413    0.84929   1.00
O2       0.08695    0.15856    0.88819   1.00
O2       0.12587    0.10660    0.84929   1.00
O2       0.99538    0.11559    0.84890   1.00
O2       0.84144    -0.07161   0.88819   1.00
O2       0.88441    0.87978    0.84890   1.00
O2       0.89340    0.01926    0.84929   1.00
C1       0.06020    0.91390    0.90642   1.00
C1       0.08610    0.14630    0.90642   1.00
C1       0.85370    -0.06020   0.90642   1.00
C1       0.14397    0.06663    0.84327   1.00
C1       0.92267    0.85603    0.84327   1.00
C1       0.93337    0.07733    0.84327   1.00
O1       0.00000    0.00000    0.37500   1.00
Zn1      0.00000    0.00000    0.40411   1.00
Zn1      0.05152    -0.04288   0.36608   1.00
Zn1      0.90561    0.94848    0.36608   1.00
Zn1      1.04288    0.09439    0.36608   1.00
O2       0.06140    -0.02610   0.41413   1.00
O2       0.91250    0.93860    0.41413   1.00
O2       0.02610    0.08750    0.41413   1.00
O2       0.08695    -0.07161   0.38819   1.00
O2       0.99538    0.87978    0.34890   1.00
O2       0.12587    0.01926    0.34929   1.00
O2       0.84144    0.91305    0.38819   1.00
O2       0.89340    0.87413    0.34929   1.00
O2       0.88441    0.00462    0.34890   1.00
O2       0.07161    0.15856    0.38819   1.00
O2       0.12022    0.11559    0.34890   1.00
O2       0.98074    0.10660    0.34929   1.00
C1       0.08610    -0.06020   0.40642   1.00
C1       0.85370    0.91390    0.40642   1.00
C1       0.06020    0.14630    0.40642   1.00
C1       0.93337    0.85603    0.34327   1.00
C1       0.14397    0.07733    0.34327   1.00
C1       0.92267    0.06663    0.34327   1.00
O1       0.00000    0.00000    0.12500   1.00
Zn1      0.00000    0.00000    0.09589   1.00
Zn1      -0.04288   0.05152    0.13392   1.00
Zn1      0.94848    0.90561    0.13392   1.00
Zn1      0.09439    1.04288    0.13392   1.00
O2       -0.02610   0.06140    0.08587   1.00
O2       0.93860    0.91250    0.08587   1.00
O2       0.08750    0.02610    0.08587   1.00
O2       -0.07161   0.08695    0.11181   1.00
O2       0.87978    0.99538    0.15110   1.00
O2       0.01926    0.12587    0.15071   1.00
O2       0.91305    0.84144    0.11181   1.00
O2       0.87413    0.89340    0.15071   1.00
O2       0.00462    0.88441    0.15110   1.00
O2       0.15856    0.07161    0.11181   1.00
O2       0.11559    0.12022    0.15110   1.00
O2       0.10660    0.98074    0.15071   1.00
C1       -0.06020   0.08610    0.09358   1.00
C1       0.91390    0.85370    0.09358   1.00
C1       0.14630    0.06020    0.09358   1.00
C1       0.85603    0.93337    0.15673   1.00
C1       0.07733    0.14397    0.15673   1.00
C1       0.06663    0.92267    0.15673   1.00
O1       0.66667    0.33333    0.95833   1.00
Zn1      0.66667    0.33333    0.92922   1.00
Zn1      0.61515    0.37621    0.96725   1.00
Zn1      0.76106    0.38485    0.96725   1.00
Zn1      -0.37621   0.23894    0.96725   1.00
O2       0.60527    0.35943    0.91920   1.00
O2       0.75417    0.39473    0.91920   1.00
O2       0.64057    0.24583    0.91920   1.00
O2       0.57972    0.40494    0.94514   1.00
O2       0.67129    0.45355    0.98443   1.00
O2       0.54080    0.31407    0.98404   1.00
O2       0.82523    0.42028    0.94514   1.00
O2       0.77327    0.45920    0.98404   1.00
O2       -0.21774   0.32871    0.98443   1.00
O2       0.59506    0.17477    0.94514   1.00
O2       0.54645    0.21774    0.98443   1.00
O2       -0.31407   0.22673    0.98404   1.00
C1       0.58057    0.39353    0.92691   1.00
C1       0.81297    0.41943    0.92691   1.00
C1       0.60647    0.18703    0.92691   1.00
C1       0.73330    0.47730    0.99006   1.00
C1       0.52270    0.25600    0.99006   1.00
C1       -0.25600   0.26670    0.99006   1.00
O1       0.66667    0.33333    0.20833   1.00
Zn1      0.66667    0.33333    0.23744   1.00
Zn1      0.70954    0.28182    0.19942   1.00
Zn1      0.71818    0.42773    0.19942   1.00
Zn1      0.57227    0.29046    0.19942   1.00
O2       0.69277    0.27193    0.24746   1.00
O2       0.72807    0.42083    0.24746   1.00
O2       0.57917    0.30723    0.24746   1.00
O2       0.73828    0.24638    0.22152   1.00
O2       0.78688    0.33796    0.18224   1.00
O2       0.64740    0.20747    0.18263   1.00
O2       0.75362    0.49189    0.22152   1.00
O2       0.79253    0.43994    0.18263   1.00
O2       0.66204    0.44893    0.18224   1.00
O2       0.50811    0.26172    0.22152   1.00
O2       0.55107    0.21312    0.18224   1.00
O2       0.56006    0.35260    0.18263   1.00
C1       0.72687    0.24723    0.23975   1.00
C1       0.75277    0.47963    0.23975   1.00
C1       0.52037    0.27313    0.23975   1.00
C1       0.81063    0.39997    0.17661   1.00
C1       0.58933    0.18937    0.17661   1.00
C1       0.60003    0.41067    0.17661   1.00
O1       0.66667    0.33333    0.70833   1.00
Zn1      0.66667    0.33333    0.73744   1.00
Zn1      0.71818    0.29046    0.69942   1.00
Zn1      0.57227    0.28182    0.69942   1.00
Zn1      0.70954    0.42773    0.69942   1.00
O2       0.72807    0.30723    0.74746   1.00
O2       0.57917    0.27193    0.74746   1.00
O2       0.69277    0.42083    0.74746   1.00
O2       0.75362    0.26172    0.72152   1.00
O2       0.66204    0.21312    0.68224   1.00
O2       0.79253    0.35260    0.68263   1.00
O2       0.50811    0.24638    0.72152   1.00
O2       0.56006    0.20747    0.68263   1.00
O2       0.55107    0.33796    0.68224   1.00
O2       0.73828    0.49189    0.72152   1.00
O2       0.78688    0.44893    0.68224   1.00
O2       0.64740    0.43994    0.68263   1.00
C1       0.75277    0.27313    0.73975   1.00
C1       0.52037    0.24723    0.73975   1.00
C1       0.72687    0.47963    0.73975   1.00
C1       0.60003    0.18937    0.67661   1.00
C1       0.81063    0.41067    0.67661   1.00
C1       0.58933    0.39997    0.67661   1.00
O1       0.66667    0.33333    0.45833   1.00
Zn1      0.66667    0.33333    0.42922   1.00
Zn1      -0.37621   0.38485    0.46725   1.00
Zn1      0.61515    0.23894    0.46725   1.00
Zn1      0.76106    0.37621    0.46725   1.00
O2       0.64057    0.39473    0.41920   1.00
O2       0.60527    0.24583    0.41920   1.00
O2       0.75417    0.35943    0.41920   1.00
O2       0.59506    0.42028    0.44514   1.00
O2       0.54645    0.32871    0.48443   1.00
O2       -0.31407   0.45920    0.48404   1.00
O2       0.57972    0.17477    0.44514   1.00
O2       0.54080    0.22673    0.48404   1.00
O2       0.67129    0.21774    0.48443   1.00
O2       0.82523    0.40494    0.44514   1.00
O2       -0.21774   0.45355    0.48443   1.00
O2       0.77327    0.31407    0.48404   1.00
C1       0.60647    0.41943    0.42691   1.00
C1       0.58057    0.18703    0.42691   1.00
C1       0.81297    0.39353    0.42691   1.00
C1       0.52270    0.26670    0.49006   1.00
C1       -0.25600   0.47730    0.49006   1.00
C1       0.73330    0.25600    0.49006   1.00
O1       0.33333    0.66667    0.29167   1.00
Zn1      0.33333    0.66667    0.26256   1.00
Zn1      0.28182    0.70954    0.30058   1.00
Zn1      0.42773    0.71818    0.30058   1.00
Zn1      0.29046    0.57227    0.30058   1.00
O2       0.27193    0.69277    0.25254   1.00
O2       0.42083    0.72807    0.25254   1.00
O2       0.30723    0.57917    0.25254   1.00
O2       0.24638    0.73828    0.27848   1.00
O2       0.33796    0.78688    0.31776   1.00
O2       0.20747    0.64740    0.31737   1.00
O2       0.49189    0.75362    0.27848   1.00
O2       0.43994    0.79253    0.31737   1.00
O2       0.44893    0.66204    0.31776   1.00
O2       0.26172    0.50811    0.27848   1.00
O2       0.21312    0.55107    0.31776   1.00
O2       0.35260    0.56006    0.31737   1.00
C1       0.24723    0.72687    0.26025   1.00
C1       0.47963    0.75277    0.26025   1.00
C1       0.27313    0.52037    0.26025   1.00
C1       0.39997    0.81063    0.32339   1.00
C1       0.18937    0.58933    0.32339   1.00
C1       0.41067    0.60003    0.32339   1.00
O1       0.33333    0.66667    0.54167   1.00
Zn1      0.33333    0.66667    0.57078   1.00
Zn1      0.37621    0.61515    0.53275   1.00
Zn1      0.38485    0.76106    0.53275   1.00
Zn1      0.23894    -0.37621   0.53275   1.00
O2       0.35943    0.60527    0.58080   1.00
O2       0.39473    0.75417    0.58080   1.00
O2       0.24583    0.64057    0.58080   1.00
O2       0.40494    0.57972    0.55486   1.00
O2       0.45355    0.67129    0.51557   1.00
O2       0.31407    0.54080    0.51596   1.00
O2       0.42028    0.82523    0.55486   1.00
O2       0.45920    0.77327    0.51596   1.00
O2       0.32871    -0.21774   0.51557   1.00
O2       0.17477    0.59506    0.55486   1.00
O2       0.21774    0.54645    0.51557   1.00
O2       0.22673    -0.31407   0.51596   1.00
C1       0.39353    0.58057    0.57309   1.00
C1       0.41943    0.81297    0.57309   1.00
C1       0.18703    0.60647    0.57309   1.00
C1       0.47730    0.73330    0.50994   1.00
C1       0.25600    0.52270    0.50994   1.00
C1       0.26670    -0.25600   0.50994   1.00
O1       0.33333    0.66667    0.04167   1.00
Zn1      0.33333    0.66667    0.07078   1.00
Zn1      0.38485    -0.37621   0.03275   1.00
Zn1      0.23894    0.61515    0.03275   1.00
Zn1      0.37621    0.76106    0.03275   1.00
O2       0.39473    0.64057    0.08080   1.00
O2       0.24583    0.60527    0.08080   1.00
O2       0.35943    0.75417    0.08080   1.00
O2       0.42028    0.59506    0.05486   1.00
O2       0.32871    0.54645    0.01557   1.00
O2       0.45920    -0.31407   0.01596   1.00
O2       0.17477    0.57972    0.05486   1.00
O2       0.22673    0.54080    0.01596   1.00
O2       0.21774    0.67129    0.01557   1.00
O2       0.40494    0.82523    0.05486   1.00
O2       0.45355    -0.21774   0.01557   1.00
O2       0.31407    0.77327    0.01596   1.00
C1       0.41943    0.60647    0.07309   1.00
C1       0.18703    0.58057    0.07309   1.00
C1       0.39353    0.81297    0.07309   1.00
C1       0.26670    0.52270    0.00994   1.00
C1       0.47730    -0.25600   0.00994   1.00
C1       0.25600    0.73330    0.00994   1.00
O1       0.33333    0.66667    0.79167   1.00
Zn1      0.33333    0.66667    0.76256   1.00
Zn1      0.29046    0.71818    0.80058   1.00
Zn1      0.28182    0.57227    0.80058   1.00
Zn1      0.42773    0.70954    0.80058   1.00
O2       0.30723    0.72807    0.75254   1.00
O2       0.27193    0.57917    0.75254   1.00
O2       0.42083    0.69277    0.75254   1.00
O2       0.26172    0.75362    0.77848   1.00
O2       0.21312    0.66204    0.81776   1.00
O2       0.35260    0.79253    0.81737   1.00
O2       0.24638    0.50811    0.77848   1.00
O2       0.20747    0.56006    0.81737   1.00
O2       0.33796    0.55107    0.81776   1.00
O2       0.49189    0.73828    0.77848   1.00
O2       0.44893    0.78688    0.81776   1.00
O2       0.43994    0.64740    0.81737   1.00
C1       0.27313    0.75277    0.76025   1.00
C1       0.24723    0.52037    0.76025   1.00
C1       0.47963    0.72687    0.76025   1.00
C1       0.18937    0.60003    0.82339   1.00
C1       0.41067    0.81063    0.82339   1.00
C1       0.39997    0.58933    0.82339   1.00
C4       -0.17678   0.62581    0.54004   1.00
C4       -0.15042   0.68221    0.55375   1.00
C3       -0.15848   0.57417    0.54123   1.00
C3       -0.10973   0.68715    0.57085   1.00
C3       -0.22321   0.62007    0.52442   1.00
C3       -0.16487   0.73614    0.55048   1.00
C2       -0.23265   0.50997    0.51295   1.00
C2       -0.09429   0.79783    0.58092   1.00
C3       -0.18575   0.51780    0.52818   1.00
C3       -0.08219   0.74330    0.58399   1.00
C3       -0.25010   0.56168    0.51152   1.00
C3       -0.13553   0.79261    0.56414   1.00
H1       -0.12413   0.57592    0.55149   1.00
H1       -0.09915   0.64981    0.57453   1.00
C5       -0.24132   0.67195    0.52193   1.00
C5       -0.20788   0.73267    0.53401   1.00
H1       -0.17070   0.48216    0.52988   1.00
H1       -0.05303   0.74392    0.59601   1.00
H1       -0.28360   0.55556    0.50033   1.00
H1       -0.14425   0.83216    0.56223   1.00
C6       -0.29594   0.66164    0.50678   1.00
C6       -0.21679   0.79329    0.52945   1.00
H2       -0.33835   0.60956    0.50805   1.00
H2       -0.16733   0.83979    0.53037   1.00
H2       -0.32023   0.69102    0.51079   1.00
H2       -0.23042   0.79393    0.51367   1.00
C6       -0.26880   0.67935    0.48447   1.00
C6       -0.27095   0.79696    0.54338   1.00
H2       -0.23588   0.65799    0.48127   1.00
H2       -0.26359   0.78643    0.55908   1.00
C6       -0.32286   0.65652    0.46705   1.00
C6       -0.27363   0.86472    0.54320   1.00
H2       -0.23554   0.73459    0.48352   1.00
H2       -0.32116   0.75515    0.53907   1.00
C6       -0.36536   0.57774    0.46523   1.00
C6       -0.20784   0.92507    0.55224   1.00
C6       -0.37162   0.68521    0.47013   1.00
C6       -0.28486   0.88354    0.52150   1.00
C6       -0.28477   0.68460    0.44663   1.00
C6       -0.33447   0.85466    0.55655   1.00
H2       -0.33233   0.55580    0.46337   1.00
H2       -0.19787   0.91295    0.56744   1.00
H2       -0.39678   0.55483    0.47862   1.00
H2       -0.16348   0.93772    0.54287   1.00
H2       -0.39956   0.56241    0.45219   1.00
H2       -0.21213   0.97086    0.55335   1.00
H2       -0.40590   0.67312    0.45720   1.00
H2       -0.29153   0.92805    0.52173   1.00
H2       -0.40310   0.66338    0.48360   1.00
H2       -0.24122   0.89574    0.51181   1.00
H2       -0.34290   0.74051    0.47189   1.00
H2       -0.33011   0.84132    0.51462   1.00
H2       -0.25008   0.66527    0.44361   1.00
H2       -0.32868   0.84194    0.57213   1.00
H2       -0.32043   0.66958    0.43395   1.00
H2       -0.33821   0.90088    0.55701   1.00
H2       -0.25486   0.74020    0.44682   1.00
H2       -0.38267   0.81354    0.55069   1.00
C4       0.37140    0.19290    0.53903   1.00
C4       0.31389    0.16270    0.55233   1.00
C3       0.43826    0.24061    0.54593   1.00
C3       0.32031    0.17250    0.57374   1.00
C3       0.36265    0.17539    0.51797   1.00
C3       0.24702    0.12085    0.54417   1.00
C2       0.48832    0.25147    0.51235   1.00
C2       0.19730    0.10439    0.57914   1.00
C3       0.49506    0.26881    0.53305   1.00
C3       0.26385    0.14458    0.58675   1.00
C3       0.42188    0.20496    0.50538   1.00
C3       0.19082    0.09367    0.55794   1.00
H1       0.44808    0.25718    0.56053   1.00
H1       0.36631    0.19975    0.58070   1.00
C5       0.29614    0.12985    0.50998   1.00
C5       0.23761    0.10679    0.52284   1.00
H1       0.54196    0.30272    0.53897   1.00
H1       0.27188    0.15378    0.60204   1.00
H1       0.41780    0.19340    0.49036   1.00
H1       0.14247    0.06406    0.55270   1.00
C6       0.28864    0.10615    0.48817   1.00
C6       0.16619    0.06855    0.51416   1.00
H2       0.32792    0.09318    0.48481   1.00
H2       0.13566    0.08838    0.52090   1.00
H2       0.24234    0.05744    0.48592   1.00
H2       0.16537    0.08028    0.49821   1.00
C6       0.28977    0.15906    0.47261   1.00
C6       0.13150    -0.01071   0.51675   1.00
H2       0.33059    0.21023    0.47660   1.00
H2       0.14071    -0.02260   0.53209   1.00
C6       0.29769    0.14721    0.44961   1.00
C6       0.05309    -0.05419   0.51252   1.00
H2       0.24254    0.16042    0.47452   1.00
H2       0.15767    -0.02860   0.50671   1.00
C6       0.36859    0.15540    0.44501   1.00
C6       0.01112    -0.03967   0.52830   1.00
C6       0.24125    0.07593    0.44244   1.00
C6       0.03501    -0.04140   0.49091   1.00
C6       0.29131    0.20169    0.43701   1.00
C6       0.03121    -0.13085   0.51421   1.00
H2       0.40958    0.20484    0.45020   1.00
H2       0.02355    -0.04717   0.54375   1.00
H2       0.37491    0.11594    0.45242   1.00
H2       0.02088    0.01242    0.52711   1.00
H2       0.37540    0.15175    0.42876   1.00
H2       -0.04350   -0.07355   0.52608   1.00
H2       0.24430    0.07005    0.42610   1.00
H2       -0.01891   -0.07545   0.48760   1.00
H2       0.24630    0.03563    0.44984   1.00
H2       0.04507    0.01075    0.48934   1.00
H2       0.19079    0.06829    0.44589   1.00
H2       0.06494    -0.04988   0.47952   1.00
H2       0.33056    0.25310    0.44135   1.00
H2       0.04223    -0.14280   0.52929   1.00
H2       0.29696    0.19580    0.42081   1.00
H2       -0.02338   -0.16338   0.51150   1.00
H2       0.24167    0.19762    0.43930   1.00
H2       0.05813    -0.14462   0.50314   1.00
C4       0.80746    0.17280    0.53679   1.00
C4       0.83530    0.14248    0.54985   1.00
C3       0.82956    0.24377    0.53736   1.00
C3       0.89194    0.18193    0.56283   1.00
C3       0.75542    0.13132    0.52256   1.00
C3       0.80609    0.07002    0.55009   1.00
C2       0.75359    0.23476    0.50973   1.00
C2       0.88952    0.08102    0.57697   1.00
C3       0.80378    0.27398    0.52419   1.00
C3       0.91810    0.15224    0.57607   1.00
C3       0.73077    0.16414    0.50934   1.00
C3       0.83399    0.04177    0.56388   1.00
H1       0.86474    0.27606    0.54750   1.00
H1       0.91675    0.23375    0.56302   1.00
C5       0.72909    0.05910    0.52186   1.00
C5       0.75083    0.02782    0.53675   1.00
H1       0.82203    0.32549    0.52531   1.00
H1       0.95886    0.18349    0.58511   1.00
H1       0.69411    0.13643    0.49892   1.00
H1       0.81430    -0.00956   0.56459   1.00
C6       0.67938    0.01701    0.50531   1.00
C6       0.71574    -0.04901   0.53870   1.00
H2       0.69697    0.04392    0.49092   1.00
H2       0.70755    -0.06273   0.55471   1.00
H2       0.68075    -0.02947   0.50229   1.00
H2       0.66375    -0.07352   0.53301   1.00
C6       0.60406    -0.00195   0.51003   1.00
C6       0.75499    -0.08063   0.52778   1.00
H2       0.60337    0.04280    0.51594   1.00
H2       0.80945    -0.04998   0.53112   1.00
C6       0.55117    -0.03192   0.49228   1.00
C6       0.73214    -0.15687   0.53249   1.00
H2       0.58572    -0.03875   0.52247   1.00
H2       0.75070    -0.07556   0.51144   1.00
C6       0.56753    0.02143    0.47527   1.00
C6       0.74686    -0.16663   0.55485   1.00
C6       0.54784    -0.09642   0.48304   1.00
C6       0.65540    -0.20466   0.52795   1.00
C6       0.47948    -0.05251   0.50080   1.00
C6       0.77346    -0.17887   0.51874   1.00
H2       0.57134    0.06806    0.48137   1.00
H2       0.80047    -0.13275   0.55863   1.00
H2       0.61550    0.03511    0.46774   1.00
H2       0.71619    -0.15607   0.56535   1.00
H2       0.52785    0.00166    0.46367   1.00
H2       0.73517    -0.21890   0.55761   1.00
H2       0.50747    -0.11969   0.47169   1.00
H2       0.64111    -0.25805   0.52989   1.00
H2       0.59568    -0.08389   0.47559   1.00
H2       0.62379    -0.19442   0.53819   1.00
H2       0.53779    -0.13427   0.49477   1.00
H2       0.64338    -0.19776   0.51241   1.00
H2       0.47885    -0.00852   0.50734   1.00
H2       0.82812    -0.14709   0.52150   1.00
H2       0.44075    -0.07337   0.48892   1.00
H2       0.75959    -0.23176   0.52157   1.00
H2       0.46441    -0.09118   0.51262   1.00
H2       0.76412    -0.17443   0.50272   1.00
C4       0.63544    -0.17005   0.96350   1.00
C4       0.69329    -0.13914   0.95034   1.00
C3       0.59980    -0.24129   0.96776   1.00
C3       0.72385    -0.17585   0.94224   1.00
C3       0.61153    -0.12895   0.97287   1.00
C3       0.72245    -0.06886   0.94494   1.00
C2       0.52048    -0.23209   0.99088   1.00
C2       0.80822    -0.07760   0.92294   1.00
C3       0.54428    -0.27142   0.98110   1.00
C3       0.77934    -0.14623   0.92887   1.00
C3       0.55505    -0.16155   0.98645   1.00
C3       0.77871    -0.04072   0.93120   1.00
H1       0.61242    -0.27407   0.96116   1.00
H1       0.70736    -0.22531   0.94590   1.00
C5       0.64354    -0.05743   0.96851   1.00
C5       0.69570    -0.02853   0.95329   1.00
H1       0.52094    -0.32304   0.98359   1.00
H1       0.79888    -0.17552   0.92350   1.00
H1       0.53688    -0.13395   0.99351   1.00
H1       0.80052    0.00895    0.92690   1.00
C6       0.62245    -0.01331   0.98015   1.00
C6       0.72227    0.04362    0.94579   1.00
H2       0.61742    -0.02698   0.99616   1.00
H2       0.72669    0.04439    0.92932   1.00
H2       0.66295    0.03968    0.98053   1.00
H2       0.68503    0.06003    0.94789   1.00
C6       0.55600    -0.01705   0.97166   1.00
C6       0.79104    0.09680    0.95605   1.00
H2       0.51804    -0.07012   0.96844   1.00
H2       0.82554    0.07616    0.95664   1.00
C6       0.52101    0.01395    0.98501   1.00
C6       0.83092    0.16964    0.94640   1.00
H2       0.56836    0.00858    0.95695   1.00
H2       0.78014    0.10219    0.97187   1.00
C6       0.49194    -0.02679   1.00496   1.00
C6       0.85799    0.16776    0.92493   1.00
C6       0.57086    0.08976    0.99018   1.00
C6       0.78624    0.20360    0.94514   1.00
C6       0.46038    0.01016    0.97291   1.00
C6       0.89351    0.21506    0.95998   1.00
H2       0.45737    -0.08079   1.00184   1.00
H2       0.88885    0.14305    0.92524   1.00
H2       0.53237    -0.02280   1.01481   1.00
H2       0.81644    0.14008    0.91424   1.00
H2       0.46358    -0.00775   1.01348   1.00
H2       0.88966    0.21914    0.91892   1.00
H2       0.54474    0.11222    0.99824   1.00
H2       0.81589    0.25609    0.93975   1.00
H2       0.61216    0.09491    0.99988   1.00
H2       0.74390    0.17620    0.93465   1.00
H2       0.59317    0.11933    0.97641   1.00
H2       0.76535    0.20428    0.95999   1.00
H2       0.42320    -0.04253   0.96905   1.00
H2       0.92720    0.19368    0.96120   1.00
H2       0.43396    0.03085    0.98168   1.00
H2       0.92333    0.26647    0.95378   1.00
H2       0.47784    0.03917    0.95882   1.00
H2       0.87763    0.21952    0.97527   1.00
C4       0.19282    0.37132    0.96100   1.00
C4       0.16263    0.31379    0.94771   1.00
C3       0.23979    0.43833    0.95404   1.00
C3       0.17165    0.32027    0.92627   1.00
C3       0.17607    0.36244    0.98211   1.00
C3       0.12161    0.24683    0.95590   1.00
C2       0.25134    0.48826    0.98768   1.00
C2       0.10437    0.19719    0.92090   1.00
C3       0.26796    0.49514    0.96692   1.00
C3       0.14375    0.26381    0.91326   1.00
C3       0.20558    0.42167    0.99470   1.00
C3       0.09442    0.19064    0.94213   1.00
H1       0.25582    0.44828    0.93939   1.00
H1       0.19827    0.36631    0.91929   1.00
C5       0.13132    0.29579    0.99016   1.00
C5       0.10834    0.23733    0.97727   1.00
H1       0.30132    0.54216    0.96095   1.00
H1       0.15236    0.27188    0.89795   1.00
H1       0.19454    0.41748    1.00976   1.00
H1       0.06538    0.14222    0.94740   1.00
C6       0.10835    0.28808    1.01205   1.00
C6       0.07101    0.16589    0.98596   1.00
H2       0.09499    0.32698    1.01554   1.00
H2       0.09106    0.13576    0.97908   1.00
H2       0.05998    0.24149    1.01441   1.00
H2       0.08338    0.16522    1.00186   1.00
C6       0.16210    0.28981    1.02738   1.00
C6       -0.00839   0.13049    0.98363   1.00
H2       0.21295    0.33098    1.02326   1.00
H2       -0.02100   0.13951    0.96836   1.00
C6       0.15093    0.29757    1.05045   1.00
C6       -0.05107   0.05204    0.98788   1.00
H2       0.16394    0.24287    1.02537   1.00
H2       -0.02632   0.15631    0.99380   1.00
C6       0.15852    0.36815    1.05517   1.00
C6       -0.03656   0.01046    0.97195   1.00
C6       0.08014    0.24065    1.05781   1.00
C6       -0.03722   0.03422    1.00940   1.00
C6       0.20623    0.29185    1.06281   1.00
C6       -0.12797   0.02940    0.98647   1.00
H2       0.20758    0.40948    1.04985   1.00
H2       -0.04479   0.02273    0.95656   1.00
H2       0.11850    0.37399    1.04794   1.00
H2       0.01575    0.02077    0.97295   1.00
H2       0.15535    0.37490    1.07144   1.00
H2       -0.06992   -0.04422   0.97420   1.00
H2       0.07478    0.24362    1.07417   1.00
H2       -0.07073   -0.01977   1.01274   1.00
H2       0.03930    0.24520    1.05058   1.00
H2       0.01516    0.04482    1.01077   1.00
H2       0.07292    0.19038    1.05428   1.00
H2       -0.04569   0.06389    1.02088   1.00
H2       0.25733    0.33147    1.05834   1.00
H2       -0.14065   0.04022    0.97146   1.00
H2       0.20083    0.29742    1.07904   1.00
H2       -0.15996   -0.02524   0.98920   1.00
H2       0.20263    0.24246    1.06043   1.00
H2       -0.14173   0.05602    0.99765   1.00
C4       0.17279    0.80745    0.96321   1.00
C4       0.14246    0.83529    0.95016   1.00
C3       0.24378    0.82963    0.96266   1.00
C3       0.18191    0.89199    0.93719   1.00
C3       0.13129    0.75534    0.97742   1.00
C3       0.06999    0.80600    0.94988   1.00
C2       0.23475    0.75359    0.99027   1.00
C2       0.08100    0.88951    0.92303   1.00
C3       0.27399    0.80385    0.97583   1.00
C3       0.15223    0.91815    0.92396   1.00
C3       0.16411    0.73070    0.99064   1.00
C3       0.04175    0.83391    0.93610   1.00
H1       0.27608    0.86486    0.95254   1.00
H1       0.23374    0.91685    0.93703   1.00
C5       0.05906    0.72893    0.97810   1.00
C5       0.02779    0.75068    0.96321   1.00
H1       0.32551    0.82216    0.97473   1.00
H1       0.18348    0.95896    0.91493   1.00
H1       0.13639    0.69398    1.00105   1.00
H1       -0.00959   0.81417    0.93537   1.00
C6       0.01694    0.67913    0.99462   1.00
C6       -0.04904   0.71552    0.96123   1.00
H2       0.04378    0.69669    1.00902   1.00
H2       -0.06269   0.70738    0.94522   1.00
H2       -0.02958   0.68043    0.99764   1.00
H2       -0.07352   0.66350    0.96690   1.00
C6       -0.00192   0.60386    0.98988   1.00
C6       -0.08077   0.75466    0.97216   1.00
H2       0.04289    0.60324    0.98398   1.00
H2       -0.05016   0.80914    0.96883   1.00
C6       -0.03192   0.55089    1.00761   1.00
C6       -0.15701   0.73175    0.96742   1.00
H2       -0.03868   0.58553    0.97743   1.00
H2       -0.07575   0.75032    0.98849   1.00
C6       0.02138    0.56724    1.02464   1.00
C6       -0.16671   0.74654    0.94507   1.00
C6       -0.09649   0.54744    1.01684   1.00
C6       -0.20475   0.65498    0.97193   1.00
C6       -0.05239   0.47926    0.99907   1.00
C6       -0.17913   0.77296    0.98118   1.00
H2       0.06806    0.57113    1.01855   1.00
H2       -0.13286   0.80016    0.94130   1.00
H2       0.03498    0.61516    1.03218   1.00
H2       -0.15606   0.71593    0.93456   1.00
H2       0.00161    0.52752    1.03623   1.00
H2       -0.21898   0.73480    0.94229   1.00
H2       -0.11976   0.50702    1.02818   1.00
H2       -0.25815   0.64063    0.96998   1.00
H2       -0.08404   0.59525    1.02430   1.00
H2       -0.19443   0.62344    0.96169   1.00
H2       -0.13430   0.53740    1.00509   1.00
H2       -0.19789   0.64291    0.98747   1.00
H2       -0.00835   0.47871    0.99255   1.00
H2       -0.14739   0.82763    0.97843   1.00
H2       -0.07326   0.44048    1.01094   1.00
H2       -0.23203   0.75905    0.97833   1.00
H2       -0.09102   0.46419    0.98724   1.00
H2       -0.17474   0.76357    0.99719   1.00
C4       0.17512    0.37479    0.45975   1.00
C4       0.14552    0.31957    0.44562   1.00
C3       0.23940    0.39639    0.46916   1.00
C3       0.18116    0.28686    0.43831   1.00
C3       0.13976    0.41030    0.46487   1.00
C3       0.07778    0.29555    0.43835   1.00
C2       0.23659    0.48859    0.48756   1.00
C2       0.08451    0.20572    0.41783   1.00
C3       0.26945    0.45174    0.48256   1.00
C3       0.15158    0.23145    0.42492   1.00
C3       0.17231    0.46664    0.47850   1.00
C3       0.04937    0.23875    0.42480   1.00
H1       0.26648    0.37227    0.46678   1.00
H1       0.23019    0.30250    0.44229   1.00
C5       0.07360    0.38909    0.45654   1.00
C5       0.04041    0.32828    0.44450   1.00
H1       0.31604    0.46494    0.48877   1.00
H1       0.17988    0.20991    0.42028   1.00
H1       0.14898    0.49344    0.48239   1.00
H1       0.00118    0.21992    0.41940   1.00
C6       0.04005    0.43150    0.46037   1.00
C6       -0.03364   0.29786    0.43841   1.00
H2       0.07786    0.48525    0.45852   1.00
H2       -0.05952   0.24278    0.44052   1.00
H2       0.00354    0.42425    0.44856   1.00
H2       -0.06136   0.31227    0.44888   1.00
C6       0.00373    0.41712    0.48151   1.00
C6       -0.04308   0.31733    0.41631   1.00
H2       0.03669    0.41451    0.49317   1.00
H2       -0.00782   0.31235    0.40609   1.00
C6       -0.01937   0.46803    0.48903   1.00
C6       -0.11609   0.27712    0.40678   1.00
H2       -0.04107   0.36609    0.48098   1.00
H2       -0.02700   0.37157    0.41624   1.00
C6       0.04251    0.53977    0.49333   1.00
C6       -0.13853   0.20099    0.40330   1.00
C6       -0.06727   0.47453    0.47354   1.00
C6       -0.16981   0.28194    0.42014   1.00
C6       -0.05924   0.44060    0.50921   1.00
C6       -0.11476   0.30885    0.38579   1.00
H2       0.07790    0.53680    0.50398   1.00
H2       -0.10107   0.19585    0.39419   1.00
H2       0.07053    0.56391    0.47951   1.00
H2       -0.14461   0.17441    0.41759   1.00
H2       0.02613    0.57350    0.49989   1.00
H2       -0.18733   0.17452    0.39539   1.00
H2       -0.08694   0.50626    0.47954   1.00
H2       -0.21949   0.25794    0.41268   1.00
H2       -0.04031   0.49800    0.45949   1.00
H2       -0.17616   0.25617    0.43462   1.00
H2       -0.11056   0.42453    0.46991   1.00
H2       -0.15451   0.33506    0.42318   1.00
H2       -0.02740   0.43573    0.52077   1.00
H2       -0.07804   0.30609    0.37567   1.00
H2       -0.07610   0.47474    0.51515   1.00
H2       -0.16463   0.28214    0.37845   1.00
H2       -0.10440   0.39056    0.50707   1.00
H2       -0.10058   0.36234    0.38728   1.00
C4       0.63415    0.80807    0.46301   1.00
C4       0.69049    0.83807    0.44928   1.00
C3       0.63420    0.77211    0.48074   1.00
C3       0.75341    0.84043    0.45340   1.00
C3       0.57503    0.81367    0.45909   1.00
C3       0.68462    0.86715    0.43067   1.00
C2       0.52163    0.75028    0.49131   1.00
C2       0.80329    0.89571    0.42108   1.00
C3       0.57987    0.74434    0.49453   1.00
C3       0.80804    0.86804    0.43971   1.00
C3       0.52094    0.78501    0.47357   1.00
C3       0.74131    0.89442    0.41709   1.00
H1       0.67343    0.76414    0.48419   1.00
H1       0.76215    0.82280    0.46658   1.00
C5       0.57082    0.84680    0.44105   1.00
C5       0.62358    0.86885    0.42607   1.00
H1       0.58315    0.71923    0.50708   1.00
H1       0.85196    0.86796    0.44353   1.00
H1       0.47827    0.78836    0.47138   1.00
H1       0.73891    0.91512    0.40364   1.00
C6       0.51125    0.85873    0.43818   1.00
C6       0.61532    0.89311    0.40542   1.00
H2       0.50148    0.87688    0.45240   1.00
H2       0.63261    0.87095    0.39381   1.00
H2       0.52416    0.90158    0.42814   1.00
H2       0.56193    0.87186    0.40142   1.00
C6       0.44557    0.79449    0.42997   1.00
C6       0.65216    0.97274    0.40362   1.00
H2       0.43777    0.74912    0.43814   1.00
H2       0.70296    0.99516    0.41037   1.00
C6       0.37707    0.79571    0.43068   1.00
C6       0.66008    1.00385    0.38191   1.00
H2       0.45528    0.78655    0.41426   1.00
H2       0.62435    0.99034    0.41306   1.00
C6       0.35373    0.79587    0.45279   1.00
C6       0.70828    0.99043    0.36842   1.00
C6       0.38285    0.85810    0.41921   1.00
C6       0.59026    0.97563    0.37116   1.00
C6       0.32075    0.73022    0.42020   1.00
C6       0.69212    1.08230    0.38396   1.00
H2       0.35023    0.75301    0.46140   1.00
H2       0.75771    1.00878    0.37574   1.00
H2       0.38902    0.84263    0.46070   1.00
H2       0.68682    0.93628    0.36531   1.00
H2       0.30371    0.79193    0.45313   1.00
H2       0.71723    1.01629    0.35383   1.00
H2       0.33361    0.85587    0.41854   1.00
H2       0.59578    1.00119    0.35667   1.00
H2       0.41852    0.90554    0.42679   1.00
H2       0.56758    0.92127    0.36809   1.00
H2       0.40060    0.86000    0.40371   1.00
H2       0.55487    0.98316    0.38054   1.00
H2       0.31409    0.68453    0.42786   1.00
H2       0.74199    1.10493    0.39129   1.00
H2       0.27170    0.72850    0.42043   1.00
H2       0.69911    1.10647    0.36915   1.00
H2       0.33364    0.72784    0.40438   1.00
H2       0.65970    1.09510    0.39301   1.00
C4       0.19301    -0.17850   0.46093   1.00
C4       0.16542    -0.15118   0.44668   1.00
C3       0.16664    -0.19786   0.48096   1.00
C3       0.10525    -0.14800   0.45071   1.00
C3       0.24919    -0.18705   0.45520   1.00
C3       0.19855    -0.12594   0.42759   1.00
C2       0.24658    -0.23687   0.48943   1.00
C2       0.11146    -0.09289   0.41829   1.00
C3       0.19229    -0.22648   0.49476   1.00
C3       0.07918    -0.11946   0.43701   1.00
C3       0.27358    -0.21673   0.46968   1.00
C3       0.17058    -0.09693   0.41411   1.00
H1       0.12824    -0.19127   0.48633   1.00
H1       0.07772    -0.16692   0.46365   1.00
C5       0.27975    -0.16585   0.43554   1.00
C5       0.25766    -0.13038   0.42233   1.00
H1       0.17086    -0.23962   0.50895   1.00
H1       0.03575    -0.11844   0.44085   1.00
H1       0.31315    -0.22405   0.46612   1.00
H1       0.19296    -0.07803   0.40046   1.00
C6       0.33428    -0.18183   0.42892   1.00
C6       0.29635    -0.09698   0.40305   1.00
H2       0.31878    -0.23408   0.43320   1.00
H2       0.30151    -0.04666   0.40164   1.00
H2       0.33694    -0.18409   0.41250   1.00
H2       0.34933    -0.08431   0.40401   1.00
C6       0.40687    -0.12999   0.43732   1.00
C6       0.26340    -0.14141   0.38363   1.00
H2       0.40301    -0.11980   0.45333   1.00
H2       0.20816    -0.16264   0.38404   1.00
C6       0.46386    -0.14955   0.43531   1.00
C6       0.28966    -0.10629   0.36251   1.00
H2       0.42423    -0.08135   0.42961   1.00
H2       0.27092    -0.18540   0.38444   1.00
C6       0.44828    -0.21234   0.44855   1.00
C6       0.27107    -0.04989   0.35876   1.00
C6       0.47375    -0.16417   0.41298   1.00
C6       0.36779    -0.07522   0.36038   1.00
C6       0.53221    -0.08866   0.44287   1.00
C6       0.25469    -0.16094   0.34567   1.00
H2       0.43992    -0.20406   0.46436   1.00
H2       0.21633    -0.06996   0.36049   1.00
H2       0.40298    -0.25814   0.44326   1.00
H2       0.29738    -0.00764   0.36933   1.00
H2       0.49045    -0.22266   0.44815   1.00
H2       0.28536    -0.02901   0.34348   1.00
H2       0.51677    -0.17295   0.41154   1.00
H2       0.38484    -0.05520   0.34512   1.00
H2       0.42862    -0.20952   0.40733   1.00
H2       0.39507    -0.03320   0.37099   1.00
H2       0.48338    -0.12129   0.40325   1.00
H2       0.38241    -0.11356   0.36337   1.00
H2       0.52820    -0.07666   0.45867   1.00
H2       0.19931    -0.18404   0.34637   1.00
H2       0.57361    -0.10006   0.44188   1.00
H2       0.27110    -0.13873   0.33060   1.00
H2       0.54671    -0.04303   0.43383   1.00
H2       0.26702    -0.20155   0.34726   1.00
C4       0.36456    0.17003    0.03650   1.00
C4       0.30735    0.14309    0.04991   1.00
C3       0.38155    0.12740    0.02495   1.00
C3       0.25915    0.07204    0.05112   1.00
C3       0.40702    0.24222    0.03438   1.00
C3       0.29710    0.18820    0.06269   1.00
C2       0.47826    0.22438    0.00862   1.00
C2       0.19351    0.08822    0.07774   1.00
C3       0.43643    0.15362    0.01136   1.00
C3       0.20413    0.04528    0.06466   1.00
C3       0.46219    0.26686    0.02029   1.00
C3       0.24064    0.15886    0.07636   1.00
H1       0.35510    0.07572    0.02614   1.00
H1       0.26182    0.03713    0.04205   1.00
C5       0.39418    0.28773    0.04624   1.00
C5       0.34229    0.26049    0.06155   1.00
H1       0.44584    0.12016    0.00342   1.00
H1       0.17132    -0.00647   0.06485   1.00
H1       0.49324    0.31785    0.01826   1.00
H1       0.23193    0.18924    0.08579   1.00
C6       0.43494    0.36372    0.04228   1.00
C6       0.33514    0.30693    0.07665   1.00
H2       0.43918    0.37256    0.02596   1.00
H2       0.32717    0.28452    0.09173   1.00
H2       0.40729    0.38924    0.04692   1.00
H2       0.38285    0.35451    0.07865   1.00
C6       0.50660    0.39932    0.05281   1.00
C6       0.27777    0.32340    0.07085   1.00
H2       0.53081    0.36839    0.05065   1.00
H2       0.23225    0.27671    0.06595   1.00
C6       0.55891    0.47407    0.04623   1.00
C6       0.25549    0.35801    0.08738   1.00
H2       0.49840    0.39907    0.06915   1.00
H2       0.29495    0.35633    0.05748   1.00
C6       0.58185    0.47738    0.02388   1.00
C6       0.22022    0.30982    0.10564   1.00
C6       0.52936    0.52223    0.04899   1.00
C6       0.31678    0.42546    0.09512   1.00
C6       0.62331    0.50090    0.05980   1.00
C6       0.20312    0.37503    0.07779   1.00
H2       0.60196    0.44305    0.02135   1.00
H2       0.17736    0.26125    0.10064   1.00
H2       0.53974    0.46316    0.01338   1.00
H2       0.25548    0.29908    0.11387   1.00
H2       0.62175    0.52882    0.01987   1.00
H2       0.20069    0.33254    0.11640   1.00
H2       0.56781    0.57501    0.04575   1.00
H2       0.30000    0.45160    0.10554   1.00
H2       0.48665    0.50840    0.03874   1.00
H2       0.35306    0.41585    0.10325   1.00
H2       0.51149    0.51978    0.06450   1.00
H2       0.34339    0.45976    0.08251   1.00
H2       0.64664    0.46901    0.05825   1.00
H2       0.15838    0.32891    0.07225   1.00
H2       0.66164    0.55292    0.05569   1.00
H2       0.18565    0.39894    0.08881   1.00
H2       0.61064    0.50111    0.07576   1.00
H2       0.22548    0.41006    0.06503   1.00
C4       0.80744    0.63468    0.03679   1.00
C4       0.83759    0.69129    0.05042   1.00
C3       0.76317    0.63007    0.02074   1.00
C3       0.83140    0.75039    0.04768   1.00
C3       0.82144    0.58007    0.03908   1.00
C3       0.87565    0.68967    0.06751   1.00
C2       0.74909    0.52183    0.00860   1.00
C2       0.89570    0.80439    0.07852   1.00
C3       0.73510    0.57560    0.00700   1.00
C3       0.85923    0.80512    0.06133   1.00
C3       0.79214    0.52570    0.02470   1.00
C3       0.90286    0.74630    0.08111   1.00
H1       0.74911    0.66579    0.01856   1.00
H1       0.80703    0.75618    0.03555   1.00
C5       0.86332    0.58046    0.05546   1.00
C5       0.88604    0.63283    0.07059   1.00
H1       0.70377    0.57542    -0.00429   1.00
H1       0.85275    0.84614    0.05854   1.00
H1       0.80129    0.48619    0.02575   1.00
H1       0.92982    0.74681    0.09351   1.00
C6       0.88361    0.52615    0.05644   1.00
C6       0.92010    0.62845    0.08985   1.00
H2       0.89834    0.51875    0.04133   1.00
H2       0.89935    0.64236    0.10272   1.00
H2       0.93072    0.54349    0.06486   1.00
H2       0.90543    0.57607    0.09351   1.00
C6       0.82696    0.45734    0.06582   1.00
C6       0.99986    0.67230    0.08907   1.00
H2       0.77734    0.44453    0.05949   1.00
H2       1.01503    0.72232    0.08258   1.00
C6       0.83570    0.39332    0.06350   1.00
C6       1.03965    0.68390    0.10946   1.00
H2       0.82346    0.46591    0.08198   1.00
H2       1.01786    0.64807    0.07831   1.00
C6       0.83020    0.37091    0.04102   1.00
C6       1.02524    0.72782    0.12453   1.00
C6       0.90459    0.40632    0.07234   1.00
C6       1.02207    0.61550    0.11973   1.00
C6       0.77755    0.33320    0.07541   1.00
C6       1.11726    0.72301    0.10480   1.00
H2       0.78255    0.36241    0.03424   1.00
H2       1.03609    0.77606    0.11761   1.00
H2       0.87212    0.40922    0.03198   1.00
H2       0.97223    0.70147    0.12944   1.00
H2       0.83161    0.32360    0.03970   1.00
H2       1.05674    0.73959    0.13810   1.00
H2       0.90807    0.35996    0.07196   1.00
H2       1.05362    0.62402    0.13314   1.00
H2       0.94730    0.44506    0.06360   1.00
H2       0.96896    0.58799    0.12459   1.00
H2       0.91038    0.42355    0.08804   1.00
H2       1.03041    0.58299    0.10929   1.00
H2       0.72765    0.32143    0.06962   1.00
H2       1.13254    0.77217    0.09770   1.00
H2       0.78120    0.28706    0.07413   1.00
H2       1.14731    0.73276    0.11862   1.00
H2       0.77954    0.34540    0.09150   1.00
H2       1.13091    0.69392    0.09453   1.00
C4       -0.17850   0.19302    0.03907   1.00
C4       -0.15118   0.16543    0.05332   1.00
C3       -0.19794   0.16659    0.01905   1.00
C3       -0.14807   0.10521    0.04931   1.00
C3       -0.18697   0.24926    0.04479   1.00
C3       -0.12586   0.19861    0.07240   1.00
C2       -0.23687   0.24658    0.01057   1.00
C2       -0.09288   0.11147    0.08171   1.00
C3       -0.22656   0.19223    0.00525   1.00
C3       -0.11953   0.07915    0.06300   1.00
C3       -0.21665   0.27364    0.03032   1.00
C3       -0.09685   0.17064    0.08588   1.00
H1       -0.19141   0.12814    0.01368   1.00
H1       -0.16705   0.07764    0.03637   1.00
C5       -0.16568   0.27988    0.06444   1.00
C5       -0.13021   0.25778    0.07765   1.00
H1       -0.23977   0.17076    -0.00893   1.00
H1       -0.11857   0.03568    0.05917   1.00
H1       -0.22392   0.31325    0.03387   1.00
H1       -0.07789   0.19306    0.09953   1.00
C6       -0.18157   0.33447    0.07105   1.00
C6       -0.09673   0.29652    0.09692   1.00
H2       -0.23383   0.31900    0.06679   1.00
H2       -0.04643   0.30163    0.09831   1.00
H2       -0.18378   0.33719    0.08747   1.00
H2       -0.08402   0.34951    0.09595   1.00
C6       -0.12972   0.40701    0.06263   1.00
C6       -0.14111   0.26366    0.11635   1.00
H2       -0.11959   0.40309    0.04662   1.00
H2       -0.16239   0.20841    0.11595   1.00
C6       -0.14920   0.46406    0.06464   1.00
C6       -0.10590   0.28996    0.13746   1.00
H2       -0.08106   0.42435    0.07033   1.00
H2       -0.18507   0.27122    0.11555   1.00
C6       -0.21201   0.44850    0.05141   1.00
C6       -0.04954   0.27132    0.14120   1.00
C6       -0.16373   0.47405    0.08696   1.00
C6       -0.07476   0.36810    0.13957   1.00
C6       -0.08829   0.53236    0.05705   1.00
C6       -0.16051   0.25509    0.15431   1.00
H2       -0.20380   0.44007    0.03560   1.00
H2       -0.06967   0.21656    0.13949   1.00
H2       -0.25782   0.40324    0.05671   1.00
H2       -0.00732   0.29756    0.13062   1.00
H2       -0.22229   0.49070    0.05181   1.00
H2       -0.02861   0.28565    0.15648   1.00
H2       -0.17246   0.51711    0.08839   1.00
H2       -0.05469   0.38520    0.15482   1.00
H2       -0.20908   0.42896    0.09263   1.00
H2       -0.03278   0.39532    0.12895   1.00
H2       -0.12083   0.48367    0.09668   1.00
H2       -0.11308   0.38277    0.13659   1.00
H2       -0.07635   0.52829    0.04124   1.00
H2       -0.18366   0.19970    0.15363   1.00
H2       -0.09964   0.57380    0.05803   1.00
H2       -0.13825   0.27153    0.16938   1.00
H2       -0.04265   0.54685    0.06608   1.00
H2       -0.20109   0.26746    0.15273   1.00
C4       0.49415    0.95840    0.87362   1.00
C4       0.52064    1.01378    0.88770   1.00
C3       0.53437    0.93140    0.86573   1.00
C3       0.58671    1.04124    0.89649   1.00
C3       0.42493    0.92831    0.86698   1.00
C3       0.48019    1.04340    0.89340   1.00
C2       0.43968    0.84424    0.84591   1.00
C2       0.57560    1.12794    0.91541   1.00
C3       0.50799    0.87586    0.85238   1.00
C3       0.61359    1.09679    0.90984   1.00
C3       0.39992    0.87158    0.85346   1.00
C3       0.50960    1.10015    0.90696   1.00
H1       0.58453    0.95152    0.86923   1.00
H1       0.61751    1.02147    0.89367   1.00
C5       0.38277    0.95512    0.87373   1.00
C5       0.41221    1.01612    0.88572   1.00
H1       0.53957    0.85862    0.84730   1.00
H1       0.66168    1.11437    0.91560   1.00
H1       0.35084    0.84852    0.84851   1.00
H1       0.48260    1.12288    0.91127   1.00
C6       0.30774    0.91833    0.86832   1.00
C6       0.37277    1.05241    0.89016   1.00
H2       0.28679    0.86370    0.87042   1.00
H2       0.40641    1.10709    0.88816   1.00
H2       0.27814    0.92900    0.87917   1.00
H2       0.33403    1.04144    0.87872   1.00
C6       0.29346    0.93532    0.84644   1.00
C6       0.33837    1.03521    0.91162   1.00
H2       0.32997    0.93434    0.83580   1.00
H2       0.37444    1.03650    0.92288   1.00
C6       0.22024    0.88939    0.83753   1.00
C6       0.30935    1.08070    0.91966   1.00
H2       0.30443    0.98811    0.84649   1.00
H2       0.29686    0.98229    0.91132   1.00
C6       0.20463    0.81526    0.83390   1.00
C6       0.36692    1.15501    0.92365   1.00
C6       0.16470    0.88825    0.85152   1.00
C6       0.25680    1.08137    0.90476   1.00
C6       0.21604    0.91910    0.81670   1.00
C6       0.27255    1.05081    0.94014   1.00
H2       0.24357    0.81438    0.82434   1.00
H2       0.40547    1.15622    0.93388   1.00
H2       0.20259    0.78978    0.84810   1.00
H2       0.39229    1.18059    0.90965   1.00
H2       0.15548    0.78492    0.82639   1.00
H2       0.34673    1.18505    0.93057   1.00
H2       0.11441    0.86014    0.84450   1.00
H2       0.23330    1.10916    0.91115   1.00
H2       0.16231    0.86350    0.86592   1.00
H2       0.28110    1.10621    0.89054   1.00
H2       0.17528    0.93994    0.85466   1.00
H2       0.21643    1.02955    0.90136   1.00
H2       0.25384    0.92038    0.80616   1.00
H2       0.30768    1.04985    0.95131   1.00
H2       0.16586    0.88843    0.80979   1.00
H2       0.25174    1.08117    0.94645   1.00
H2       0.22526    0.97101    0.81833   1.00
H2       0.23039    0.99876    0.93824   1.00
C4       0.03251    0.52527    0.87031   1.00
C4       -0.02571   0.49706    0.88334   1.00
C3       0.08626    0.51036    0.87265   1.00
C3       -0.03774   0.44657    0.89820   1.00
C3       0.03809    0.57030    0.85427   1.00
C3       -0.07436   0.51952    0.88163   1.00
C2       0.14866    0.57963    0.84336   1.00
C2       -0.14167   0.44239    0.91037   1.00
C3       0.14244    0.53637    0.85954   1.00
C3       -0.09372   0.42024    0.91139   1.00
C3       0.09594    0.59540    0.84119   1.00
C3       -0.13048   0.49171    0.89542   1.00
H1       0.08695    0.48058    0.88408   1.00
H1       -0.00664   0.42652    0.89987   1.00
C5       -0.01299   0.58946    0.85169   1.00
C5       -0.06651   0.56813    0.86639   1.00
H1       0.17936    0.52347    0.86199   1.00
H1       -0.09937   0.38413    0.92183   1.00
H1       0.10148    0.62716    0.82953   1.00
H1       -0.16588   0.50676    0.89477   1.00
C6       -0.01019   0.63121    0.83340   1.00
C6       -0.11424   0.59682    0.86616   1.00
H2       0.00173    0.61103    0.81998   1.00
H2       -0.12118   0.60918    0.88163   1.00
H2       -0.06026   0.62350    0.82958   1.00
H2       -0.09100   0.64657    0.85892   1.00
C6       0.04066    0.70948    0.83607   1.00
C6       -0.18420   0.54850    0.85561   1.00
H2       0.08823    0.71724    0.84273   1.00
H2       -0.20328   0.49608    0.86069   1.00
C6       0.05918    0.75552    0.81673   1.00
C6       -0.24286   0.56537    0.85840   1.00
H2       0.01906    0.72866    0.84735   1.00
H2       -0.17460   0.54811    0.83938   1.00
C6       0.10008    0.73875    0.80117   1.00
C6       -0.26729   0.55632    0.88076   1.00
C6       -0.00530   0.74863    0.80631   1.00
C6       -0.22082   0.63878    0.85133   1.00
C6       0.10485    0.83108    0.82323   1.00
C6       -0.30462   0.51504    0.84526   1.00
H2       0.14539    0.74208    0.80815   1.00
H2       -0.28218   0.50530    0.88631   1.00
H2       0.06945    0.68758    0.79500   1.00
H2       -0.22750   0.59313    0.89070   1.00
H2       0.11681    0.77418    0.78841   1.00
H2       -0.31124   0.56356    0.88229   1.00
H2       0.00841    0.78446    0.79372   1.00
H2       -0.26348   0.64834    0.85197   1.00
H2       -0.03703   0.69747    0.80020   1.00
H2       -0.18048   0.67645    0.86099   1.00
H2       -0.03577   0.75878    0.81706   1.00
H2       -0.20203   0.64695    0.83576   1.00
H2       0.15156    0.83890    0.83050   1.00
H2       -0.32270   0.46234    0.84979   1.00
H2       0.11955    0.86529    0.81019   1.00
H2       -0.34719   0.52451    0.84681   1.00
H2       0.07824    0.84643    0.83393   1.00
H2       -0.29095   0.51996    0.82923   1.00
C4       0.47381    0.50561    0.87005   1.00
C4       0.50147    0.47516    0.88312   1.00
C3       0.49893    0.57721    0.86975   1.00
C3       0.56062    0.51463    0.89520   1.00
C3       0.41884    0.46363    0.85670   1.00
C3       0.46948    0.40252    0.88431   1.00
C2       0.42015    0.56763    0.84293   1.00
C2       0.55551    0.41365    0.91029   1.00
C3       0.47324    0.60743    0.85654   1.00
C3       0.58671    0.48495    0.90846   1.00
C3       0.39437    0.49645    0.84341   1.00
C3       0.49744    0.37430    0.89809   1.00
H1       0.53638    0.61002    0.87925   1.00
H1       0.58737    0.56644    0.89467   1.00
C5       0.38951    0.39095    0.85692   1.00
C5       0.41149    0.36011    0.87189   1.00
H1       0.49374    0.65939    0.85701   1.00
H1       0.62938    0.51624    0.91682   1.00
H1       0.35566    0.46836    0.83360   1.00
H1       0.47583    0.32288    0.89947   1.00
C6       0.33640    0.34786    0.84125   1.00
C6       0.37383    0.28356    0.87487   1.00
H2       0.35256    0.37229    0.82646   1.00
H2       0.36774    0.27240    0.89107   1.00
H2       0.33495    0.29976    0.83865   1.00
H2       0.32111    0.26026    0.86990   1.00
C6       0.26292    0.33304    0.84682   1.00
C6       0.40871    0.24751    0.86391   1.00
H2       0.26542    0.37979    0.85230   1.00
H2       0.46376    0.27661    0.86646   1.00
C6       0.20714    0.30233    0.82986   1.00
C6       0.38344    0.17137    0.86954   1.00
H2       0.24524    0.29822    0.85975   1.00
H2       0.40218    0.25041    0.84759   1.00
C6       0.22299    0.35349    0.81222   1.00
C6       0.40085    0.16406    0.89183   1.00
C6       0.19921    0.23506    0.82126   1.00
C6       0.30566    0.12568    0.86615   1.00
C6       0.13771    0.28623    0.83921   1.00
C6       0.42036    0.14462    0.85564   1.00
H2       0.22999    0.40196    0.81783   1.00
H2       0.45530    0.19658    0.89480   1.00
H2       0.26915    0.36388    0.80414   1.00
H2       0.37320    0.17806    0.90249   1.00
H2       0.18155    0.33350    0.80118   1.00
H2       0.38732    0.11159    0.89518   1.00
H2       0.15696    0.21157    0.81052   1.00
H2       0.28941    0.07206    0.86872   1.00
H2       0.24520    0.24429    0.81327   1.00
H2       0.27705    0.13935    0.87657   1.00
H2       0.18943    0.19864    0.83343   1.00
H2       0.29183    0.13097    0.85068   1.00
H2       0.14033    0.33230    0.84532   1.00
H2       0.47557    0.17478    0.85761   1.00
H2       0.09709    0.26504    0.82789   1.00
H2       0.40469    0.09163    0.85910   1.00
H2       0.12300    0.24924    0.85151   1.00
H2       0.40894    0.14718    0.83969   1.00
C4       0.29182    0.15851    0.29306   1.00
C4       0.34766    0.18481    0.27915   1.00
C3       0.25223    0.19062    0.29632   1.00
C3       0.36329    0.24070    0.26600   1.00
C3       0.27424    0.09789    0.30429   1.00
C3       0.38996    0.15462    0.27811   1.00
C2       0.17681    0.10354    0.32045   1.00
C2       0.46256    0.24018    0.25171   1.00
C3       0.19626    0.16390    0.30951   1.00
C3       0.41915    0.26785    0.25276   1.00
C3       0.21663    0.07213    0.31749   1.00
C3       0.44658    0.18403    0.26450   1.00
H1       0.26300    0.23501    0.28939   1.00
H1       0.33426    0.26336    0.26541   1.00
C5       0.31395    0.06489    0.30229   1.00
C5       0.37507    0.09643    0.29035   1.00
H1       0.16961    0.18933    0.31114   1.00
H1       0.42783    0.30838    0.24373   1.00
H1       0.20226    0.02889    0.32563   1.00
H1       0.47810    0.16427    0.26343   1.00
C6       0.29050    -0.00305   0.31259   1.00
C6       0.42433    0.06958    0.29070   1.00
H2       0.23572    -0.03540   0.31039   1.00
H2       0.47624    0.11245    0.29172   1.00
H2       0.31003    -0.03233   0.30497   1.00
H2       0.42020    0.04229    0.30467   1.00
C6       0.31035    0.00395    0.33560   1.00
C6       0.41545    0.02228    0.27221   1.00
H2       0.29984    0.04125    0.34278   1.00
H2       0.40960    0.04507    0.25829   1.00
C6       0.27613    -0.06238   0.34881   1.00
C6       0.47271    0.00396    0.26851   1.00
H2       0.36561    0.02610    0.33651   1.00
H2       0.36707    -0.02516   0.27414   1.00
C6       0.19823    -0.09126   0.35102   1.00
C6       0.54115    0.06758    0.26240   1.00
C6       0.28902    -0.11830   0.33994   1.00
C6       0.48419    -0.02963   0.28743   1.00
C6       0.30768    -0.04456   0.37040   1.00
C6       0.45041    -0.04781   0.25072   1.00
H2       0.18738    -0.05264   0.35694   1.00
H2       0.53453    0.09312    0.24927   1.00
H2       0.17214    -0.10879   0.33652   1.00
H2       0.56199    0.10443    0.27473   1.00
H2       0.17566    -0.13465   0.36138   1.00
H2       0.57936    0.05355    0.25849   1.00
H2       0.26920    -0.16241   0.35001   1.00
H2       0.52064    -0.04661   0.28422   1.00
H2       0.26383    -0.13607   0.32531   1.00
H2       0.50444    0.00629    0.30002   1.00
H2       0.34346    -0.09883   0.33783   1.00
H2       0.43646    -0.07376   0.29230   1.00
H2       0.29935    -0.00569   0.37746   1.00
H2       0.44229    -0.02629   0.23689   1.00
H2       0.28504    -0.08928   0.38027   1.00
H2       0.48905    -0.06187   0.24746   1.00
H2       0.36253    -0.02515   0.36990   1.00
H2       0.40298    -0.09451   0.25429   1.00
C4       0.87232    0.70703    0.29351   1.00
C4       0.84487    0.65214    0.27925   1.00
C3       0.91783    0.71243    0.30927   1.00
C3       0.86647    0.60291    0.27842   1.00
C3       0.85403    0.75889    0.29221   1.00
C3       0.79391    0.64550    0.26515   1.00
C2       0.93048    0.81975    0.32174   1.00
C2       0.78702    0.53921    0.25109   1.00
C3       0.94636    0.76719    0.32290   1.00
C3       0.83827    0.54794    0.26486   1.00
C3       0.88450    0.81401    0.30632   1.00
C3       0.76622    0.58857    0.25166   1.00
H1       0.93143    0.67642    0.31156   1.00
H1       0.90399    0.60553    0.28750   1.00
C5       0.80623    0.75472    0.27720   1.00
C5       0.77217    0.69509    0.26469   1.00
H1       0.97906    0.76825    0.33388   1.00
H1       0.85586    0.51402    0.26507   1.00
H1       0.87313    0.85210    0.30578   1.00
H1       0.72956    0.58186    0.24151   1.00
C6       0.79295    0.81351    0.27460   1.00
C6       0.71318    0.68351    0.25121   1.00
H2       0.84135    0.86130    0.27509   1.00
H2       0.67279    0.63049    0.25251   1.00
H2       0.77512    0.81490    0.25940   1.00
H2       0.68786    0.71030    0.25682   1.00
C6       0.74085    0.81273    0.29041   1.00
C6       0.73454    0.70437    0.22857   1.00
H2       0.75274    0.80140    0.30548   1.00
H2       0.76848    0.68577    0.22369   1.00
C6       0.73464    0.87837    0.29214   1.00
C6       0.67620    0.68089    0.21248   1.00
H2       0.69060    0.76977    0.28671   1.00
H2       0.76550    0.75993    0.22798   1.00
C6       0.80102    0.93973    0.30052   1.00
C6       0.63631    0.60223    0.20999   1.00
C6       0.71690    0.89811    0.27146   1.00
C6       0.62569    0.70574    0.21798   1.00
C6       0.67627    0.86394    0.30723   1.00
C6       0.70869    0.71223    0.19163   1.00
H2       0.81555    0.92705    0.31498   1.00
H2       0.67071    0.58295    0.20642   1.00
H2       0.84341    0.95537    0.29003   1.00
H2       0.60865    0.57697    0.22376   1.00
H2       0.79460    0.98384    0.30300   1.00
H2       0.59895    0.58672    0.19777   1.00
H2       0.70789    0.94093    0.27311   1.00
H2       0.58811    0.69334    0.20597   1.00
H2       0.75849    0.91330    0.26066   1.00
H2       0.59793    0.68150    0.23186   1.00
H2       0.67112    0.85529    0.26502   1.00
H2       0.65267    0.76084    0.22024   1.00
H2       0.68664    0.85042    0.32218   1.00
H2       0.74436    0.69568    0.18692   1.00
H2       0.67023    0.90855    0.30906   1.00
H2       0.66991    0.69690    0.17983   1.00
H2       0.62766    0.82192    0.30194   1.00
H2       0.73648    0.76784    0.19230   1.00
C4       0.83509    0.12788    0.29345   1.00
C4       0.80776    0.15546    0.27920   1.00
C3       0.79418    0.07992    0.30861   1.00
C3       0.73658    0.13176    0.27773   1.00
C3       0.90595    0.14856    0.29275   1.00
C3       0.85256    0.20872    0.26576   1.00
C2       0.88959    0.06955    0.32163   1.00
C2       0.75274    0.21346    0.25107   1.00
C3       0.82040    0.05132    0.32222   1.00
C3       0.70982    0.16002    0.26418   1.00
C3       0.93057    0.11793    0.30682   1.00
C3       0.82330    0.23638    0.25226   1.00
H1       0.74394    0.06448    0.31046   1.00
H1       0.70143    0.09261    0.28631   1.00
C5       0.95026    0.19880    0.27838   1.00
C5       0.92438    0.23272    0.26594   1.00
H1       0.78818    0.01679    0.33274   1.00
H1       0.65804    0.14084    0.26392   1.00
H1       0.98055    0.13098    0.30670   1.00
H1       0.85355    0.27462    0.24258   1.00
C6       1.02342    0.21480    0.27638   1.00
C6       0.97195    0.29390    0.25320   1.00
H2       1.02456    0.16727    0.27653   1.00
H2       0.95741    0.33288    0.25469   1.00
H2       1.04404    0.23478    0.26144   1.00
H2       1.02339    0.31999    0.25934   1.00
C6       1.07187    0.26591    0.29288   1.00
C6       0.97483    0.27561    0.23043   1.00
H2       1.04696    0.25162    0.30770   1.00
H2       0.92321    0.24098    0.22496   1.00
C6       1.14456    0.27445    0.29516   1.00
C6       1.00996    0.33599    0.21499   1.00
H2       1.07781    0.31588    0.28957   1.00
H2       1.00110    0.24624    0.22980   1.00
C6       1.14100    0.20820    0.30304   1.00
C6       0.96927    0.37396    0.21250   1.00
C6       1.18440    0.29566    0.27487   1.00
C6       1.08411    0.38766    0.22135   1.00
C6       1.18535    0.33153    0.31093   1.00
C6       1.01240    0.30656    0.19393   1.00
H2       1.11220    0.19124    0.31720   1.00
H2       0.91634    0.33867    0.20833   1.00
H2       1.11658    0.16689    0.29208   1.00
H2       0.96909    0.39954    0.22647   1.00
H2       1.19190    0.21607    0.30591   1.00
H2       0.99149    0.41284    0.20070   1.00
H2       1.23662    0.30622    0.27694   1.00
H2       1.10970    0.42685    0.20977   1.00
H2       1.16034    0.25519    0.26361   1.00
H2       1.08506    0.41336    0.23543   1.00
H2       1.18642    0.34142    0.26877   1.00
H2       1.11350    0.36198    0.22361   1.00
H2       1.15972    0.31871    0.32563   1.00
H2       0.96113    0.27021    0.18862   1.00
H2       1.23647    0.33910    0.31315   1.00
H2       1.03615    0.34684    0.18256   1.00
H2       1.19082    0.38004    0.30602   1.00
H2       1.04168    0.28026    0.19460   1.00
C4       0.83290    0.69797    0.79682   1.00
C4       0.80486    0.64006    0.78367   1.00
C3       0.79927    0.73575    0.80075   1.00
C3       0.73819    0.61160    0.77524   1.00
C3       0.89704    0.71974    0.80651   1.00
C3       0.84423    0.60867    0.77861   1.00
C2       0.88794    0.81307    0.82418   1.00
C2       0.74936    0.52500    0.75629   1.00
C3       0.82567    0.79134    0.81408   1.00
C3       0.71130    0.55606    0.76189   1.00
C3       0.92199    0.77637    0.82007   1.00
C3       0.81513    0.55242    0.76487   1.00
H1       0.75465    0.72470    0.79391   1.00
H1       0.70639    0.62975    0.77865   1.00
C5       0.93465    0.68550    0.80249   1.00
C5       0.91056    0.63324    0.78729   1.00
H1       0.79881    0.81628    0.81633   1.00
H1       0.66299    0.53810    0.75627   1.00
H1       0.96717    0.79306    0.82736   1.00
H1       0.84174    0.52906    0.76080   1.00
C6       0.99875    0.70439    0.81447   1.00
C6       0.95450    0.60431    0.78015   1.00
H2       0.98967    0.70988    0.83041   1.00
H2       0.95159    0.59993    0.76368   1.00
H2       1.00932    0.66259    0.81505   1.00
H2       1.00841    0.64012    0.78246   1.00
C6       1.06326    0.76960    0.80617   1.00
C6       0.93592    0.53483    0.79051   1.00
H2       1.05017    0.80891    0.80274   1.00
H2       0.88052    0.50189    0.79087   1.00
C6       1.12859    0.80263    0.81982   1.00
C6       0.96708    0.49284    0.78119   1.00
H2       1.07651    0.75645    0.79158   1.00
H2       0.95150    0.54531    0.80640   1.00
C6       1.11732    0.83276    0.83961   1.00
C6       0.93876    0.46638    0.75963   1.00
C6       1.15174    0.75076    0.82530   1.00
C6       1.04595    0.53522    0.78028   1.00
C6       1.18732    0.86214    0.80789   1.00
C6       0.94704    0.42973    0.79485   1.00
H2       1.09985    0.86878    0.83626   1.00
H2       0.88308    0.43716    0.75969   1.00
H2       1.07949    0.79301    0.84935   1.00
H2       0.95456    0.50818    0.74890   1.00
H2       1.16443    0.85977    0.84833   1.00
H2       0.95709    0.43330    0.75383   1.00
H2       1.19994    0.77545    0.83357   1.00
H2       1.06738    0.50406    0.77512   1.00
H2       1.11418    0.71013    0.83490   1.00
H2       1.06283    0.57778    0.76975   1.00
H2       1.15866    0.72771    0.81163   1.00
H2       1.06714    0.55566    0.79520   1.00
H2       1.17384    0.90067    0.80382   1.00
H2       0.89169    0.39760    0.79583   1.00
H2       1.23406    0.88718    0.81687   1.00
H2       0.96730    0.39846    0.78887   1.00
H2       1.19865    0.84385    0.79392   1.00
H2       0.96681    0.44512    0.81021   1.00
C4       0.29354    0.12719    0.79372   1.00
C4       0.35046    0.15287    0.78022   1.00
C3       0.23319    0.12927    0.78901   1.00
C3       0.34832    0.17577    0.76025   1.00
C3       0.29621    0.09824    0.81273   1.00
C3       0.41227    0.15605    0.78668   1.00
C2       0.17709    0.07225    0.82056   1.00
C2       0.46662    0.20793    0.75327   1.00
C3       0.17655    0.10237    0.80195   1.00
C3       0.40465    0.20279    0.74719   1.00
C3       0.23729    0.07106    0.82543   1.00
C3       0.46860    0.18426    0.77296   1.00
H1       0.22838    0.15103    0.77609   1.00
H1       0.30552    0.17305    0.75436   1.00
C5       0.35665    0.09730    0.81869   1.00
C5       0.41658    0.13110    0.80630   1.00
H1       0.13446    0.10520    0.79763   1.00
H1       0.39991    0.21869    0.73300   1.00
H1       0.23707    0.04964    0.83901   1.00
H1       0.51355    0.18780    0.77705   1.00
C6       0.35618    0.06008    0.83782   1.00
C6       0.48435    0.14142    0.81375   1.00
H2       0.30883    0.01129    0.83847   1.00
H2       0.52424    0.19319    0.81016   1.00
H2       0.39400    0.04394    0.83723   1.00
H2       0.48671    0.14150    0.83022   1.00
C6       0.36758    0.10298    0.85759   1.00
C6       0.50157    0.08708    0.80530   1.00
H2       0.33668    0.12766    0.85693   1.00
H2       0.48981    0.07945    0.78910   1.00
C6       0.35313    0.06485    0.87839   1.00
C6       0.57614    0.10117    0.80824   1.00
H2       0.42044    0.14465    0.85757   1.00
H2       0.46668    0.03823    0.81241   1.00
C6       0.27636    0.01181    0.88103   1.00
C6       0.62823    0.16407    0.79585   1.00
C6       0.39552    0.02877    0.88086   1.00
C6       0.59729    0.11185    0.83088   1.00
C6       0.37358    0.11801    0.89572   1.00
C6       0.57979    0.03838    0.80043   1.00
H2       0.24493    0.03549    0.87905   1.00
H2       0.61410    0.15861    0.77984   1.00
H2       0.25948    -0.02950   0.87007   1.00
H2       0.63140    0.21087    0.80139   1.00
H2       0.26608    -0.01106   0.89611   1.00
H2       0.67928    0.17065    0.79687   1.00
H2       0.38880    0.00652    0.89596   1.00
H2       0.64740    0.11676    0.83291   1.00
H2       0.37983    -0.01239   0.86987   1.00
H2       0.60010    0.15816    0.83677   1.00
H2       0.44969    0.06473    0.87864   1.00
H2       0.56063    0.06889    0.84000   1.00
H2       0.34451    0.14452    0.89481   1.00
H2       0.56597    0.02901    0.78441   1.00
H2       0.36398    0.09372    0.91060   1.00
H2       0.63112    0.04598    0.80204   1.00
H2       0.42767    0.15615    0.89493   1.00
H2       0.54507    -0.00751   0.80888   1.00
C4       0.87229    0.16523    0.79350   1.00
C4       0.84680    0.19639    0.77990   1.00
C3       0.86163    0.09837    0.79028   1.00
C3       0.81522    0.16594    0.76110   1.00
C3       0.90990    0.20153    0.81108   1.00
C3       0.85278    0.26051    0.78505   1.00
C2       0.92666    0.10345    0.82045   1.00
C2       0.79223    0.25773    0.75286   1.00
C3       0.88822    0.06844    0.80326   1.00
C3       0.78843    0.19540    0.74801   1.00
C3       0.93643    0.16939    0.82387   1.00
C3       0.82449    0.28862    0.77135   1.00
H1       0.83357    0.06863    0.77849   1.00
H1       0.81111    0.12155    0.75612   1.00
C5       0.91983    0.26786    0.81559   1.00
C5       0.88661    0.29501    0.80336   1.00
H1       0.87897    0.02016    0.80005   1.00
H1       0.76603    0.17074    0.73471   1.00
H1       0.96383    0.19376    0.83644   1.00
H1       0.82733    0.33390    0.77455   1.00
C6       0.96578    0.30859    0.83301   1.00
C6       0.88615    0.35908    0.80966   1.00
H2       1.01172    0.30450    0.83266   1.00
H2       0.83517    0.35155    0.80739   1.00
H2       0.98664    0.36306    0.83088   1.00
H2       0.89244    0.36718    0.82596   1.00
C6       0.92955    0.28750    0.85418   1.00
C6       0.94172    0.42475    0.79858   1.00
H2       0.90006    0.23191    0.85527   1.00
H2       0.94237    0.41389    0.78245   1.00
C6       0.97550    0.31498    0.87354   1.00
C6       0.93641    0.49087    0.80041   1.00
H2       0.89190    0.30420    0.85473   1.00
H2       0.99151    0.43601    0.80436   1.00
C6       1.02333    0.28468    0.87565   1.00
C6       0.87190    0.48275    0.78960   1.00
C6       1.01885    0.39385    0.87350   1.00
C6       0.93601    0.51097    0.82285   1.00
C6       0.92866    0.29301    0.89252   1.00
C6       0.99954    0.55038    0.78992   1.00
H2       0.99434    0.22901    0.87539   1.00
H2       0.87009    0.46747    0.77380   1.00
H2       1.06056    0.30159    0.86341   1.00
H2       0.82540    0.44448    0.79701   1.00
H2       1.05169    0.30038    0.88988   1.00
H2       0.87110    0.53054    0.78974   1.00
H2       1.04695    0.41271    0.88769   1.00
H2       0.93723    0.55966    0.82394   1.00
H2       1.05603    0.41185    0.86121   1.00
H2       0.89011    0.47289    0.83059   1.00
H2       0.98650    0.41647    0.87160   1.00
H2       0.98020    0.51561    0.83092   1.00
H2       0.89737    0.23755    0.89339   1.00
H2       1.00185    0.53906    0.77393   1.00
H2       0.95849    0.31067    0.90647   1.00
H2       0.99792    0.59771    0.79068   1.00
H2       0.89454    0.31401    0.89212   1.00
H2       1.04675    0.55954    0.79715   1.00
C4       0.03172    0.50534    0.37002   1.00
C4       -0.02507   0.47877    0.38358   1.00
C3       0.03953    0.46412    0.35513   1.00
C3       -0.08142   0.41120    0.38183   1.00
C3       0.08320    0.57567    0.37118   1.00
C3       -0.02646   0.52069    0.39958   1.00
C2       0.14478    0.55975    0.34191   1.00
C2       -0.13835   0.42386    0.41161   1.00
C3       0.09411    0.49045    0.34143   1.00
C3       -0.13623   0.38436    0.39546   1.00
C3       0.13777    0.60057    0.35687   1.00
C3       -0.08303   0.49129    0.41321   1.00
H1       0.00622    0.41327    0.35382   1.00
H1       -0.08509   0.37918    0.37047   1.00
C5       0.07961    0.61903    0.38640   1.00
C5       0.02743    0.59005    0.40160   1.00
H1       0.09668    0.45811    0.33100   1.00
H1       -0.17518   0.33516    0.39342   1.00
H1       0.17509    0.65038    0.35712   1.00
H1       -0.08562   0.51934    0.42486   1.00
C6       0.13036    0.69479    0.38608   1.00
C6       0.02896    0.63146    0.41983   1.00
H2       0.13657    0.71322    0.37052   1.00
H2       0.01695    0.60003    0.43341   1.00
H2       0.11017    0.72389    0.39346   1.00
H2       0.08036    0.67229    0.42315   1.00
C6       0.20054    0.71360    0.39600   1.00
C6       -0.01899   0.66247    0.41754   1.00
H2       0.21653    0.67787    0.39083   1.00
H2       -0.06812   0.62392    0.41135   1.00
C6       0.26150    0.78759    0.39257   1.00
C6       -0.03326   0.69312    0.43697   1.00
H2       0.19238    0.70495    0.41231   1.00
H2       0.00313    0.70238    0.40600   1.00
C6       0.28370    0.80051    0.36999   1.00
C6       -0.07461   0.63726    0.45298   1.00
C6       0.24391    0.84216    0.39972   1.00
C6       0.03370    0.74918    0.44673   1.00
C6       0.32342    0.79656    0.40516   1.00
C6       -0.07645   0.72611    0.43079   1.00
H2       0.29541    0.76213    0.36438   1.00
H2       -0.12172   0.59632    0.44646   1.00
H2       0.24391    0.79916    0.36039   1.00
H2       -0.04548   0.61473    0.45893   1.00
H2       0.32911    0.85044    0.36798   1.00
H2       -0.08836   0.65830    0.46583   1.00
H2       0.28825    0.89330    0.39862   1.00
H2       0.02306    0.77357    0.45938   1.00
H2       0.20365    0.84118    0.39041   1.00
H2       0.06395    0.72774    0.45261   1.00
H2       0.22675    0.83337    0.41546   1.00
H2       0.06447    0.78845    0.43565   1.00
H2       0.33842    0.75960    0.40055   1.00
H2       -0.12475   0.68843    0.42399   1.00
H2       0.36754    0.84744    0.40315   1.00
H2       -0.08815   0.74789    0.44391   1.00
H2       0.31136    0.78941    0.42131   1.00
H2       -0.04934   0.76699    0.41979   1.00
C4       0.47404    0.96805    0.37010   1.00
C4       0.50421    1.02469    0.38372   1.00
C3       0.42910    0.96301    0.35421   1.00
C3       0.49731    1.08342    0.38112   1.00
C3       0.48874    0.91386    0.37225   1.00
C3       0.54301    1.02347    0.40067   1.00
C2       0.41566    0.85517    0.34193   1.00
C2       0.56236    1.13781    0.41181   1.00
C3       0.40100    0.90853    0.34048   1.00
C3       0.52516    1.13816    0.39476   1.00
C3       0.45939    0.85946    0.35787   1.00
C3       0.57021    1.08008    0.41428   1.00
H1       0.41455    0.99841    0.35215   1.00
H1       0.47238    1.08893    0.36909   1.00
C5       0.53134    0.91467    0.38847   1.00
C5       0.55412    0.96701    0.40361   1.00
H1       0.36916    0.90802    0.32930   1.00
H1       0.51815    1.17891    0.39208   1.00
H1       0.46901    0.82024    0.35882   1.00
H1       0.59769    1.08087    0.42657   1.00
C6       0.55230    0.86084    0.38927   1.00
C6       0.58899    0.96301    0.42274   1.00
H2       0.56670    0.85362    0.37410   1.00
H2       0.56840    0.97665    0.43570   1.00
H2       0.59973    0.87858    0.39755   1.00
H2       0.57489    0.91075    0.42635   1.00
C6       0.49635    0.79182    0.39874   1.00
C6       0.66868    1.00744    0.42174   1.00
H2       0.44642    0.77857    0.39257   1.00
H2       0.68322    1.05735    0.41528   1.00
C6       0.50571    0.72821    0.39627   1.00
C6       0.70919    1.01939    0.44200   1.00
H2       0.49326    0.80032    0.41492   1.00
H2       0.68667    0.98351    0.41087   1.00
C6       0.49969    0.70585    0.37377   1.00
C6       0.69475    1.06295    0.45720   1.00
C6       0.57508    0.74184    0.40488   1.00
C6       0.69254    0.95116    0.45221   1.00
C6       0.44824    0.66781    0.40828   1.00
C6       0.78665    1.05908    0.43713   1.00
H2       0.45169    0.69691    0.36715   1.00
H2       0.70495    1.11105    0.45034   1.00
H2       0.54116    0.74438    0.36465   1.00
H2       0.64190    1.03621    0.46227   1.00
H2       0.50154    0.65879    0.37236   1.00
H2       0.72672    1.07498    0.47068   1.00
H2       0.57903    0.69575    0.40441   1.00
H2       0.72457    0.95997    0.46553   1.00
H2       0.61734    0.78081    0.39606   1.00
H2       0.63959    0.92326    0.45722   1.00
H2       0.58123    0.75905    0.42059   1.00
H2       0.70092    0.91890    0.44169   1.00
H2       0.39804    0.65560    0.40265   1.00
H2       0.80129    1.10814    0.43007   1.00
H2       0.45233    0.62194    0.40691   1.00
H2       0.81718    1.06909    0.45086   1.00
H2       0.45063    0.67998    0.42439   1.00
H2       0.80033    1.03027    0.42676   1.00
C4       0.49404    0.52597    0.37010   1.00
C4       0.52051    0.49580    0.38372   1.00
C3       0.53400    0.57106    0.35424   1.00
C3       0.58621    0.50284    0.38114   1.00
C3       0.42510    0.51113    0.37221   1.00
C3       0.48043    0.45685    0.40063   1.00
C2       0.43955    0.58437    0.34193   1.00
C2       0.57548    0.43764    0.41181   1.00
C3       0.50761    0.59916    0.34051   1.00
C3       0.61310    0.47499    0.39479   1.00
C3       0.40006    0.54049    0.35784   1.00
C3       0.50983    0.42965    0.41424   1.00
H1       0.58398    0.58571    0.35220   1.00
H1       0.61672    0.52790    0.36913   1.00
C5       0.38325    0.46838    0.38840   1.00
C5       0.41279    0.44559    0.40355   1.00
H1       0.53898    0.63110    0.32935   1.00
H1       0.66092    0.48212    0.39212   1.00
H1       0.35118    0.53077    0.35876   1.00
H1       0.48309    0.40206    0.42652   1.00
C6       0.30842    0.44728    0.38917   1.00
C6       0.37383    0.41054    0.42264   1.00
H2       0.28691    0.43295    0.37398   1.00
H2       0.40796    0.43110    0.43563   1.00
H2       0.27874    0.39978    0.39741   1.00
H2       0.33558    0.42453    0.42625   1.00
C6       0.29515    0.50308    0.39865   1.00
C6       0.33870    0.33087    0.42160   1.00
H2       0.33181    0.55308    0.39251   1.00
H2       0.37418    0.31646    0.41515   1.00
C6       0.22215    0.49360    0.39615   1.00
C6       0.31007    0.29021    0.44184   1.00
H2       0.30665    0.50609    0.41484   1.00
H2       0.29684    0.31288    0.41071   1.00
C6       0.20592    0.49972    0.37365   1.00
C6       0.36800    0.30466    0.45707   1.00
C6       0.16643    0.42412    0.40471   1.00
C6       0.25833    0.30667    0.45204   1.00
C6       0.21901    0.55091    0.40819   1.00
C6       0.27245    0.21278    0.43692   1.00
H2       0.24496    0.54780    0.36706   1.00
H2       0.40601    0.29459    0.45021   1.00
H2       0.20313    0.45835    0.36451   1.00
H2       0.39399    0.35748    0.46216   1.00
H2       0.15697    0.49778    0.37222   1.00
H2       0.34802    0.27259    0.47052   1.00
H2       0.11635    0.42007    0.40422   1.00
H2       0.23506    0.27453    0.46533   1.00
H2       0.16329    0.38196    0.39587   1.00
H2       0.28326    0.35958    0.45707   1.00
H2       0.17742    0.41790    0.42042   1.00
H2       0.21774    0.29828    0.44149   1.00
H2       0.25697    0.60118    0.40259   1.00
H2       0.30699    0.19828    0.42986   1.00
H2       0.16901    0.54673    0.40679   1.00
H2       0.25188    0.18215    0.45063   1.00
H2       0.22870    0.54844    0.42429   1.00
H2       0.23001    0.19909    0.42653   1.00
C4       0.16014    0.30117    0.20353   1.00
C4       0.19035    0.35935    0.21657   1.00
C3       0.08983    0.25051    0.20474   1.00
C3       0.15111    0.37468    0.23023   1.00
C3       0.20104    0.29242    0.18863   1.00
C3       0.26249    0.40455    0.21611   1.00
C2       0.09823    0.18522    0.17650   1.00
C2       0.25176    0.47514    0.24366   1.00
C3       0.05963    0.19445    0.19159   1.00
C3       0.18078    0.43057    0.24345   1.00
C3       0.16824    0.23481    0.17546   1.00
C3       0.29076    0.46070    0.22989   1.00
H1       0.05808    0.25209    0.21535   1.00
H1       0.09941    0.34619    0.23095   1.00
C5       0.27271    0.34019    0.18725   1.00
C5       0.30432    0.39338    0.20208   1.00
H1       0.00861    0.15986    0.19320   1.00
H1       0.14970    0.43869    0.25300   1.00
H1       0.19552    0.22710    0.16459   1.00
H1       0.34188    0.49369    0.23011   1.00
C6       0.31385    0.33434    0.17006   1.00
C6       0.38117    0.43728    0.20324   1.00
H2       0.28507    0.32416    0.15600   1.00
H2       0.39687    0.44324    0.21908   1.00
H2       0.35896    0.38304    0.16673   1.00
H2       0.40649    0.41129    0.19701   1.00
C6       0.33589    0.27985    0.17408   1.00
C6       0.40931    0.50794    0.19240   1.00
H2       0.29279    0.23358    0.18029   1.00
H2       0.37761    0.53009    0.19636   1.00
C6       0.36513    0.25855    0.15575   1.00
C6       0.48544    0.56323    0.19642   1.00
H2       0.37415    0.29939    0.18613   1.00
H2       0.40253    0.49856    0.17609   1.00
C6       0.31018    0.22020    0.13924   1.00
C6       0.49715    0.58762    0.21881   1.00
C6       0.42732    0.32098    0.14605   1.00
C6       0.53466    0.53671    0.19099   1.00
C6       0.38909    0.20927    0.16359   1.00
C6       0.50374    0.62612    0.18284   1.00
H2       0.26509    0.17643    0.14568   1.00
H2       0.46236    0.60564    0.22322   1.00
H2       0.29402    0.25326    0.13217   1.00
H2       0.48926    0.54681    0.22915   1.00
H2       0.32966    0.20145    0.12722   1.00
H2       0.54914    0.62942    0.22112   1.00
H2       0.45029    0.30511    0.13426   1.00
H2       0.58775    0.57711    0.19246   1.00
H2       0.41231    0.35510    0.13905   1.00
H2       0.52709    0.49531    0.20106   1.00
H2       0.46620    0.34971    0.15745   1.00
H2       0.52648    0.51789    0.17543   1.00
H2       0.34681    0.16384    0.17042   1.00
H2       0.47085    0.64732    0.18623   1.00
H2       0.40956    0.19256    0.15129   1.00
H2       0.55643    0.66643    0.18521   1.00
H2       0.42898    0.23391    0.17502   1.00
H2       0.49782    0.61244    0.16680   1.00
C4       0.70638    0.87286    0.20625   1.00
C4       0.65154    0.84583    0.22052   1.00
C3       0.70676    0.90967    0.18868   1.00
C3       0.59685    0.85978    0.21937   1.00
C3       0.76340    0.86310    0.20942   1.00
C3       0.65057    0.80320    0.23667   1.00
C2       0.81879    0.93042    0.17791   1.00
C2       0.53889    0.78850    0.24878   1.00
C3       0.76133    0.93791    0.17497   1.00
C3       0.54202    0.83178    0.23299   1.00
C3       0.81812    0.89301    0.19516   1.00
C3       0.59361    0.77540    0.25016   1.00
H1       0.66709    0.91676    0.18507   1.00
H1       0.59515    0.89136    0.20872   1.00
C5       0.76462    0.82405    0.22638   1.00
C5       0.70562    0.78965    0.23911   1.00
H1       0.75861    0.96414    0.16263   1.00
H1       0.50403    0.84361    0.23130   1.00
H1       0.85974    0.88758    0.19697   1.00
H1       0.59086    0.74449    0.26175   1.00
C6       0.82831    0.82029    0.23074   1.00
C6       0.70044    0.73875    0.25492   1.00
H2       0.87280    0.87093    0.22903   1.00
H2       0.64946    0.69417    0.25439   1.00
H2       0.83169    0.80971    0.24664   1.00
H2       0.73197    0.71669    0.25105   1.00
C6       0.83424    0.76614    0.21742   1.00
C6       0.71938    0.76964    0.27681   1.00
H2       0.82110    0.77002    0.20171   1.00
H2       0.69544    0.80042    0.27974   1.00
C6       0.90437    0.76817    0.21730   1.00
C6       0.70150    0.71879    0.29494   1.00
H2       0.79503    0.71563    0.22250   1.00
H2       0.77421    0.80556    0.27711   1.00
C6       0.96112    0.83419    0.20722   1.00
C6       0.62331    0.67281    0.29763   1.00
C6       0.92701    0.76207    0.23900   1.00
C6       0.73410    0.67325    0.29227   1.00
C6       0.89665    0.70675    0.20470   1.00
C6       0.73017    0.76062    0.31476   1.00
H2       0.94621    0.84056    0.19198   1.00
H2       0.59862    0.70345    0.29921   1.00
H2       0.97218    0.87927    0.21602   1.00
H2       0.60032    0.63886    0.28472   1.00
H2       1.00854    0.83297    0.20594   1.00
H2       0.61132    0.64090    0.31112   1.00
H2       0.97338    0.75862    0.23864   1.00
H2       0.72543    0.64147    0.30564   1.00
H2       0.93770    0.80648    0.24813   1.00
H2       0.71221    0.63932    0.27929   1.00
H2       0.88733    0.71672    0.24660   1.00
H2       0.78900    0.70438    0.28992   1.00
H2       0.88138    0.70899    0.18914   1.00
H2       0.70817    0.79321    0.31747   1.00
H2       0.94455    0.70620    0.20406   1.00
H2       0.71854    0.72727    0.32790   1.00
H2       0.85819    0.65847    0.21131   1.00
H2       0.78547    0.79316    0.31396   1.00
C4       0.12788    0.83509    0.20655   1.00
C4       0.15545    0.80776    0.22080   1.00
C3       0.07993    0.79418    0.19139   1.00
C3       0.13176    0.73658    0.22227   1.00
C3       0.14855    0.90595    0.20725   1.00
C3       0.20871    0.85255    0.23424   1.00
C2       0.06955    0.88959    0.17837   1.00
C2       0.21346    0.75274    0.24893   1.00
C3       0.05133    0.82040    0.17778   1.00
C3       0.16002    0.70982    0.23582   1.00
C3       0.11793    0.93057    0.19318   1.00
C3       0.23637    0.82329    0.24774   1.00
H1       0.06449    0.74394    0.18954   1.00
H1       0.09262    0.70143    0.21369   1.00
C5       0.19879    0.95026    0.22162   1.00
C5       0.23271    0.92438    0.23406   1.00
H1       0.01680    0.78818    0.16725   1.00
H1       0.14085    0.65804    0.23608   1.00
H1       0.13097    0.98054    0.19330   1.00
H1       0.27461    0.85354    0.25743   1.00
C6       0.21478    1.02341    0.22363   1.00
C6       0.29388    0.97195    0.24680   1.00
H2       0.16724    1.02455    0.22347   1.00
H2       0.33286    0.95742    0.24532   1.00
H2       0.23475    1.04403    0.23856   1.00
H2       0.31997    1.02339    0.24067   1.00
C6       0.26589    1.07187    0.20712   1.00
C6       0.27558    0.97482    0.26958   1.00
H2       0.25160    1.04697    0.19230   1.00
H2       0.24095    0.92319    0.27505   1.00
C6       0.27443    1.14456    0.20485   1.00
C6       0.33596    1.00994    0.28502   1.00
H2       0.31586    1.07782    0.21043   1.00
H2       0.24621    1.00109    0.27020   1.00
C6       0.20818    1.14100    0.19696   1.00
C6       0.37394    0.96926    0.28750   1.00
C6       0.29563    1.18439    0.22514   1.00
C6       0.38762    1.08410    0.27866   1.00
C6       0.33151    1.18536    0.18908   1.00
C6       0.30652    1.01238    0.30608   1.00
H2       0.19123    1.11220    0.18281   1.00
H2       0.33864    0.91633    0.29167   1.00
H2       0.16686    1.11657    0.20792   1.00
H2       0.39952    0.96909    0.27354   1.00
H2       0.21605    1.19190    0.19409   1.00
H2       0.41281    0.99149    0.29931   1.00
H2       0.30618    1.23661    0.22307   1.00
H2       0.42681    1.10969    0.29024   1.00
H2       0.25515    1.16033    0.23639   1.00
H2       0.41333    1.08506    0.26458   1.00
H2       0.34139    1.18641    0.23124   1.00
H2       0.36194    1.11348    0.27639   1.00
H2       0.31870    1.15973    0.17437   1.00
H2       0.27017    0.96110    0.31138   1.00
H2       0.33908    1.23647    0.18686   1.00
H2       0.34680    1.03612    0.31744   1.00
H2       0.38002    1.19083    0.19399   1.00
H2       0.28022    1.04166    0.30541   1.00
C4       0.96839    0.49500    0.63002   1.00
C4       1.02644    0.52559    0.61694   1.00
C3       0.92477    0.42301    0.63137   1.00
C3       1.04904    0.48641    0.60592   1.00
C3       0.95251    0.53722    0.64232   1.00
C3       1.06401    0.59807    0.61462   1.00
C2       0.85290    0.43294    0.65722   1.00
C2       1.14183    0.58714    0.58970   1.00
C3       0.86897    0.39280    0.64461   1.00
C3       1.10475    0.51609    0.59264   1.00
C3       0.89544    0.50443    0.65569   1.00
C3       1.12021    0.62627    0.60085   1.00
H1       0.93151    0.38985    0.62263   1.00
H1       1.02629    0.43489    0.60729   1.00
C5       0.99285    0.61008    0.64100   1.00
C5       1.04545    0.64040    0.62596   1.00
H1       0.83966    0.34057    0.64492   1.00
H1       1.11831    0.48500    0.58507   1.00
H1       0.88281    0.53271    0.66477   1.00
H1       1.14788    0.67755    0.59869   1.00
C6       0.97993    0.65395    0.65563   1.00
C6       1.08100    0.71625    0.62175   1.00
H2       0.97274    0.63244    0.67082   1.00
H2       1.08568    0.72449    0.60540   1.00
H2       1.02506    0.70372    0.65768   1.00
H2       1.04938    0.73795    0.62591   1.00
C6       0.91883    0.66386    0.64914   1.00
C6       1.15173    0.75726    0.63266   1.00
H2       0.87610    0.61503    0.64420   1.00
H2       1.18011    0.73018    0.63100   1.00
C6       0.89115    0.69509    0.66516   1.00
C6       1.19963    0.83295    0.62595   1.00
H2       0.93451    0.69629    0.63567   1.00
H2       1.14209    0.75678    0.64891   1.00
C6       0.85771    0.64662    0.68348   1.00
C6       1.22477    0.83755    0.60381   1.00
C6       0.94817    0.76521    0.67292   1.00
C6       1.16398    0.87588    0.62802   1.00
C6       0.83548    0.70587    0.65493   1.00
C6       1.26341    0.86505    0.63991   1.00
H2       0.81794    0.59626    0.67848   1.00
H2       1.24922    0.80685    0.60176   1.00
H2       0.89500    0.64010    0.69214   1.00
H2       1.18286    0.81966    0.59302   1.00
H2       0.83442    0.66665    0.69386   1.00
H2       1.26177    0.89004    0.59974   1.00
H2       0.92745    0.78874    0.68295   1.00
H2       1.19929    0.92953    0.62470   1.00
H2       0.98643    0.75986    0.68147   1.00
H2       1.12139    0.85832    0.61748   1.00
H2       0.97352    0.79988    0.66027   1.00
H2       1.14452    0.87236    0.64338   1.00
H2       0.79354    0.65765    0.64935   1.00
H2       1.29092    0.83700    0.63885   1.00
H2       0.81420    0.72724    0.66558   1.00
H2       1.29872    0.91793    0.63572   1.00
H2       0.85632    0.74081    0.64210   1.00
H2       1.24908    0.86457    0.65574   1.00
C4       0.52616    0.03183    0.62994   1.00
C4       0.49848    -0.02629   0.61688   1.00
C3       0.50130    0.07853    0.63017   1.00
C3       0.43955    -0.04574   0.60471   1.00
C3       0.58088    0.04459    0.64338   1.00
C3       0.53023    -0.06718   0.61577   1.00
C2       0.57984    0.14752    0.65706   1.00
C2       0.44442    -0.14185   0.58971   1.00
C3       0.52700    0.13444    0.64337   1.00
C3       0.41345    -0.10152   0.59146   1.00
C3       0.60536    0.10189    0.65666   1.00
C3       0.50228    -0.12335   0.60199   1.00
H1       0.46405    0.07405    0.62061   1.00
H1       0.41297    -0.02050   0.60518   1.00
C5       0.60994    0.00101    0.64324   1.00
C5       0.58798    -0.05182   0.62828   1.00
H1       0.50670    0.16606    0.64284   1.00
H1       0.37095    -0.11272   0.58303   1.00
H1       0.64389    0.11237    0.66652   1.00
H1       0.52372    -0.15333   0.60067   1.00
C6       0.66275    0.01081    0.65899   1.00
C6       0.62542    -0.09098   0.62539   1.00
H2       0.64645    0.01917    0.67374   1.00
H2       0.63171    -0.09608   0.60921   1.00
H2       0.66396    -0.03595   0.66163   1.00
H2       0.67808    -0.06173   0.63042   1.00
C6       0.73641    0.06926    0.65350   1.00
C6       0.59014    -0.16191   0.63635   1.00
H2       0.73420    0.11363    0.64797   1.00
H2       0.53514    -0.18767   0.63372   1.00
C6       0.79194    0.09415    0.67053   1.00
C6       0.61521    -0.21300   0.63080   1.00
H2       0.75416    0.05202    0.64061   1.00
H2       0.59647    -0.15249   0.65267   1.00
C6       0.77603    0.12960    0.68811   1.00
C6       0.59804    -0.23769   0.60851   1.00
C6       0.79946    0.03464    0.67918   1.00
C6       0.69290    -0.18120   0.63429   1.00
C6       0.86158    0.14728    0.66125   1.00
C6       0.57789    -0.27665   0.64469   1.00
H2       0.76932    0.17120    0.68245   1.00
H2       0.54366    -0.25943   0.60546   1.00
H2       0.72971    0.09396    0.69614   1.00
H2       0.62597    -0.19608   0.59785   1.00
H2       0.81732    0.15091    0.69920   1.00
H2       0.61141    -0.27679   0.60521   1.00
H2       0.84155    0.05324    0.68999   1.00
H2       0.70898    -0.21873   0.63178   1.00
H2       0.75329    -0.00200   0.68713   1.00
H2       0.72180    -0.13894   0.62389   1.00
H2       0.80927    0.00790    0.66705   1.00
H2       0.70657    -0.16210   0.64977   1.00
H2       0.85926    0.19084    0.65509   1.00
H2       0.52272    -0.30151   0.64265   1.00
H2       0.90203    0.16657    0.67262   1.00
H2       0.59340    -0.31413   0.64129   1.00
H2       0.87633    0.12488    0.64899   1.00
H2       0.58912    -0.26270   0.66065   1.00
C4       0.50564    0.47383    0.62995   1.00
C4       0.47519    0.50150    0.61688   1.00
C3       0.57721    0.49880    0.63021   1.00
C3       0.51467    0.56053    0.60475   1.00
C3       0.46367    0.41899    0.64334   1.00
C3       0.40256    0.46964    0.61573   1.00
C2       0.56765    0.42016    0.65706   1.00
C2       0.41368    0.55555    0.58971   1.00
C3       0.60743    0.47311    0.64341   1.00
C3       0.48498    0.58663    0.59150   1.00
C3       0.49649    0.39452    0.65663   1.00
C3       0.37433    0.49759    0.60196   1.00
H1       0.61000    0.53615    0.62067   1.00
H1       0.56648    0.58719    0.60525   1.00
C5       0.39101    0.38980    0.64316   1.00
C5       0.36015    0.41177    0.62820   1.00
H1       0.65937    0.49351    0.64291   1.00
H1       0.51628    0.62920    0.58310   1.00
H1       0.46842    0.35590    0.66646   1.00
H1       0.32291    0.47607    0.60061   1.00
C6       0.34796    0.33686    0.65888   1.00
C6       0.28358    0.37423    0.62526   1.00
H2       0.37251    0.35309    0.67365   1.00
H2       0.27229    0.36803    0.60908   1.00
H2       0.29993    0.33553    0.66150   1.00
H2       0.26021    0.32154    0.63027   1.00
C6       0.33293    0.26328    0.65335   1.00
C6       0.24774    0.40933    0.63623   1.00
H2       0.37959    0.26562    0.64784   1.00
H2       0.27692    0.46435    0.63364   1.00
C6       0.30226    0.20763    0.67035   1.00
C6       0.17159    0.38416    0.63064   1.00
H2       0.29802    0.24556    0.64044   1.00
H2       0.25074    0.40291    0.65255   1.00
C6       0.35352    0.22352    0.68796   1.00
C6       0.16417    0.40144    0.60835   1.00
C6       0.23512    0.19992    0.67898   1.00
C6       0.12579    0.30643    0.63409   1.00
C6       0.28594    0.13809    0.66104   1.00
C6       0.14507    0.42130    0.64453   1.00
H2       0.40191    0.23036    0.68232   1.00
H2       0.19675    0.45586    0.60534   1.00
H2       0.36407    0.26976    0.69601   1.00
H2       0.17800    0.37364    0.59769   1.00
H2       0.33354    0.18215    0.69903   1.00
H2       0.11170    0.38800    0.60503   1.00
H2       0.21163    0.15776    0.68975   1.00
H2       0.07218    0.29027    0.63155   1.00
H2       0.24451    0.24601    0.68694   1.00
H2       0.13930    0.27767    0.62368   1.00
H2       0.19863    0.19012    0.66683   1.00
H2       0.13116    0.29269    0.64956   1.00
H2       0.33191    0.14055    0.65490   1.00
H2       0.17531    0.47649    0.64253   1.00
H2       0.26476    0.09756    0.67239   1.00
H2       0.09208    0.40572    0.64111   1.00
H2       0.24887    0.12336    0.64876   1.00
H2       0.14771    0.40998    0.66049   1.00
C4       0.50844    0.04146    0.12642   1.00
C4       0.47884    -0.01375   0.11229   1.00
C3       0.57276    0.06312    0.13580   1.00
C3       0.51451    -0.04641   0.10496   1.00
C3       0.47304    0.07691    0.13156   1.00
C3       0.41106    -0.03784   0.10504   1.00
C2       0.56991    0.15527    0.15422   1.00
C2       0.41783    -0.12761   0.08450   1.00
C3       0.60282    0.11848    0.14921   1.00
C3       0.48493    -0.10182   0.09157   1.00
C3       0.50558    0.13325    0.14519   1.00
C3       0.38265    -0.09464   0.09149   1.00
H1       0.59988    0.03905    0.13341   1.00
H1       0.56356    -0.03073   0.10892   1.00
C5       0.40684    0.05564    0.12326   1.00
C5       0.37365    -0.00517   0.11122   1.00
H1       0.64944    0.13172    0.15540   1.00
H1       0.51325    -0.12331   0.08691   1.00
H1       0.48223    0.16001    0.14910   1.00
H1       0.33444    -0.11352   0.08611   1.00
C6       0.37323    0.09798    0.12711   1.00
C6       0.29957    -0.03566   0.10515   1.00
H2       0.41099    0.15174    0.12525   1.00
H2       0.27374    -0.09074   0.10726   1.00
H2       0.33666    0.09069    0.11531   1.00
H2       0.27185    -0.02130   0.11563   1.00
C6       0.33698    0.08357    0.14827   1.00
C6       0.29002    -0.01621   0.08306   1.00
H2       0.37000    0.08100    0.15991   1.00
H2       0.32528    -0.02115   0.07282   1.00
C6       0.31383    0.13442    0.15580   1.00
C6       0.21699    -0.05648   0.07356   1.00
H2       0.29221    0.03251    0.14774   1.00
H2       0.30605    0.03801    0.08300   1.00
C6       0.37568    0.20619    0.16010   1.00
C6       0.19461    -0.13260   0.07007   1.00
C6       0.26585    0.14086    0.14033   1.00
C6       0.16328    -0.05173   0.08694   1.00
C6       0.27405    0.10696    0.17600   1.00
C6       0.21820    -0.02478   0.05257   1.00
H2       0.41113    0.20326    0.17072   1.00
H2       0.23206    -0.13769   0.06094   1.00
H2       0.40364    0.23035    0.14626   1.00
H2       0.18860    -0.15917   0.08435   1.00
H2       0.35928    0.23988    0.16666   1.00
H2       0.14578    -0.15911   0.06217   1.00
H2       0.24615    0.17255    0.14635   1.00
H2       0.11357    -0.07578   0.07950   1.00
H2       0.29274    0.16435    0.12628   1.00
H2       0.15700    -0.07749   0.10141   1.00
H2       0.22257    0.09084    0.13672   1.00
H2       0.17854    0.00137    0.08998   1.00
H2       0.30595    0.10212    0.18754   1.00
H2       0.25490    -0.02749   0.04243   1.00
H2       0.25715    0.14106    0.18195   1.00
H2       0.16831    -0.05153   0.04525   1.00
H2       0.22891    0.05689    0.17386   1.00
H2       0.23234    0.02870    0.05407   1.00
C4       0.96748    0.47475    0.12968   1.00
C4       1.02381    0.50474    0.11595   1.00
C3       0.96753    0.43879    0.14741   1.00
C3       1.08674    0.50711    0.12007   1.00
C3       0.90835    0.48033    0.12576   1.00
C3       1.01795    0.53381    0.09734   1.00
C2       0.85496    0.41695    0.15798   1.00
C2       1.13662    0.56238    0.08775   1.00
C3       0.91320    0.41102    0.16121   1.00
C3       1.14137    0.53472    0.10638   1.00
C3       0.85427    0.45167    0.14024   1.00
C3       1.07464    0.56108    0.08375   1.00
H1       1.00676    0.43083    0.15086   1.00
H1       1.09549    0.48949    0.13326   1.00
C5       0.90414    0.51345    0.10772   1.00
C5       0.95690    0.53550    0.09274   1.00
H1       0.91648    0.38592    0.17375   1.00
H1       1.18529    0.53464    0.11021   1.00
H1       0.81159    0.45502    0.13805   1.00
H1       1.07223    0.58178    0.07031   1.00
C6       0.84457    0.52537    0.10484   1.00
C6       0.94864    0.55975    0.07209   1.00
H2       0.83479    0.54352    0.11906   1.00
H2       0.96593    0.53759    0.06048   1.00
H2       0.85747    0.56822    0.09480   1.00
H2       0.89524    0.53850    0.06808   1.00
C6       0.77889    0.46113    0.09664   1.00
C6       0.98547    0.63938    0.07028   1.00
H2       0.77109    0.41576    0.10481   1.00
H2       1.03627    0.66181    0.07704   1.00
C6       0.71039    0.46233    0.09734   1.00
C6       0.99339    0.67048    0.04857   1.00
H2       0.78860    0.45318    0.08093   1.00
H2       0.95766    0.65698    0.07972   1.00
C6       0.68704    0.46250    0.11945   1.00
C6       1.04159    0.65706    0.03508   1.00
C6       0.71616    0.52472    0.08587   1.00
C6       0.92356    0.64225    0.03782   1.00
C6       0.65406    0.39684    0.08687   1.00
C6       1.02542    0.74893    0.05062   1.00
H2       0.68354    0.41964    0.12806   1.00
H2       1.09102    0.67542    0.04240   1.00
H2       0.72233    0.50927    0.12736   1.00
H2       1.02013    0.60291    0.03197   1.00
H2       0.63702    0.45856    0.11979   1.00
H2       1.05053    0.68291    0.02049   1.00
H2       0.66692    0.52249    0.08520   1.00
H2       0.92908    0.66780    0.02333   1.00
H2       0.75182    0.57216    0.09345   1.00
H2       0.90089    0.58788    0.03475   1.00
H2       0.73391    0.52661    0.07038   1.00
H2       0.88817    0.64977    0.04720   1.00
H2       0.64741    0.35115    0.09453   1.00
H2       1.07529    0.77157    0.05795   1.00
H2       0.60501    0.39511    0.08709   1.00
H2       1.03240    0.77309    0.03580   1.00
H2       0.66696    0.39446    0.07105   1.00
H2       0.99300    0.76173    0.05966   1.00
C4       0.52598    0.49406    0.12990   1.00
C4       0.49582    0.52054    0.11629   1.00
C3       0.57122    0.53407    0.14573   1.00
C3       0.50302    0.58631    0.11884   1.00
C3       0.51099    0.42506    0.12783   1.00
C3       0.45669    0.48038    0.09941   1.00
C2       0.58439    0.43958    0.15807   1.00
C2       0.43765    0.57550    0.08820   1.00
C3       0.59933    0.50769    0.15946   1.00
C3       0.47516    0.61321    0.10519   1.00
C3       0.54036    0.40003    0.14220   1.00
C3       0.42949    0.50979    0.08580   1.00
H1       0.58599    0.58410    0.14774   1.00
H1       0.52820    0.61688    0.13082   1.00
C5       0.46808    0.38315    0.11167   1.00
C5       0.44527    0.41267    0.09652   1.00
H1       0.63139    0.53911    0.17059   1.00
H1       0.48241    0.66108    0.10783   1.00
H1       0.53053    0.35110    0.14130   1.00
H1       0.40178    0.48299    0.07354   1.00
C6       0.44682    0.30827    0.11095   1.00
C6       0.41004    0.37361    0.07746   1.00
H2       0.43257    0.28688    0.12615   1.00
H2       0.43055    0.40763    0.06445   1.00
H2       0.39925    0.27861    0.10273   1.00
H2       0.42389    0.33526    0.07386   1.00
C6       0.50246    0.29480    0.10144   1.00
C6       0.33038    0.33863    0.07855   1.00
H2       0.55253    0.33143    0.10755   1.00
H2       0.31612    0.37423    0.08499   1.00
C6       0.49284    0.22175    0.10398   1.00
C6       0.28956    0.30991    0.05834   1.00
H2       0.50537    0.30618    0.08525   1.00
H2       0.31240    0.29684    0.08946   1.00
C6       0.49908    0.20565    0.12649   1.00
C6       0.30402    0.36778    0.04308   1.00
C6       0.42326    0.16607    0.09547   1.00
C6       0.30581    0.25801    0.04816   1.00
C6       0.55000    0.21839    0.09192   1.00
C6       0.21217    0.27247    0.06331   1.00
H2       0.54724    0.24467    0.13304   1.00
H2       0.29410    0.40589    0.04993   1.00
H2       0.45782    0.20301    0.13565   1.00
H2       0.35679    0.39364    0.03796   1.00
H2       0.49704    0.15666    0.12794   1.00
H2       0.27185    0.34775    0.02965   1.00
H2       0.41910    0.11594    0.09599   1.00
H2       0.27356    0.23469    0.03489   1.00
H2       0.38120    0.16308    0.10433   1.00
H2       0.35868    0.28281    0.04309   1.00
H2       0.41695    0.17697    0.07976   1.00
H2       0.29741    0.21746    0.05873   1.00
H2       0.60034    0.25633    0.09748   1.00
H2       0.19782    0.30713    0.07036   1.00
H2       0.54571    0.16836    0.09334   1.00
H2       0.18143    0.25185    0.04962   1.00
H2       0.54743    0.22798    0.07581   1.00
H2       0.19848    0.23008    0.07373   1.00
C4       0.70822    0.84120    0.70695   1.00
C4       0.65290    0.81139    0.72104   1.00
C3       0.73335    0.90788    0.69885   1.00
C3       0.62364    0.84865    0.72962   1.00
C3       0.74018    0.80358    0.70054   1.00
C3       0.62521    0.74173    0.72697   1.00
C2       0.82226    0.90283    0.67923   1.00
C2       0.53885    0.75022    0.74876   1.00
C3       0.78883    0.93800    0.68549   1.00
C3       0.56814    0.81903    0.74298   1.00
C3       0.79678    0.83624    0.68700   1.00
C3       0.56844    0.71337    0.74053   1.00
H1       0.71185    0.93681    0.70219   1.00
H1       0.64199    0.89892    0.72664   1.00
C5       0.71531    0.73515    0.70751   1.00
C5       0.65436    0.70244    0.71951   1.00
H1       0.80468    0.98637    0.68025   1.00
H1       0.54920    0.84858    0.74857   1.00
H1       0.82113    0.81131    0.68220   1.00
H1       0.54705    0.66389    0.74499   1.00
C6       0.75404    0.69868    0.70233   1.00
C6       0.62008    0.62696    0.72418   1.00
H2       0.80842    0.73372    0.70440   1.00
H2       0.56520    0.60433    0.72217   1.00
H2       0.74458    0.65913    0.71333   1.00
H2       0.63220    0.59967    0.71288   1.00
C6       0.73786    0.66662    0.68055   1.00
C6       0.63815    0.61140    0.74575   1.00
H2       0.73757    0.70312    0.66975   1.00
H2       0.63563    0.64588    0.75686   1.00
C6       0.78552    0.64112    0.67184   1.00
C6       0.59447    0.53691    0.75400   1.00
H2       0.68563    0.62372    0.68066   1.00
H2       0.69157    0.62442    0.74550   1.00
C6       0.85887    0.70103    0.66811   1.00
C6       0.51949    0.51803    0.75791   1.00
C6       0.78855    0.58821    0.68605   1.00
C6       0.59564    0.48410    0.73932   1.00
C6       0.75649    0.60606    0.65109   1.00
C6       0.62510    0.53187    0.77457   1.00
H2       0.85839    0.73985    0.65839   1.00
H2       0.51696    0.55502    0.76798   1.00
H2       0.88396    0.72543    0.68227   1.00
H2       0.49349    0.51645    0.74386   1.00
H2       0.89038    0.68336    0.66075   1.00
H2       0.49068    0.46789    0.76497   1.00
H2       0.81791    0.56715    0.67917   1.00
H2       0.56915    0.43299    0.74586   1.00
H2       0.81293    0.61151    0.70041   1.00
H2       0.57041    0.48223    0.72505   1.00
H2       0.73742    0.54615    0.68926   1.00
H2       0.64794    0.49703    0.73597   1.00
H2       0.75394    0.64154    0.64040   1.00
H2       0.62481    0.56772    0.78559   1.00
H2       0.78836    0.58773    0.64432   1.00
H2       0.59599    0.48076    0.78103   1.00
H2       0.70519    0.56239    0.65279   1.00
H2       0.67768    0.54331    0.77273   1.00
C4       0.12752    0.29313    0.70643   1.00
C4       0.15307    0.34987    0.72000   1.00
C3       0.13545    0.23550    0.71017   1.00
C3       0.18186    0.34985    0.73921   1.00
C3       0.09267    0.29319    0.68835   1.00
C3       0.15002    0.40929    0.71439   1.00
C2       0.07297    0.17687    0.67952   1.00
C2       0.20779    0.46586    0.74701   1.00
C3       0.10876    0.17894    0.69720   1.00
C3       0.20873    0.40613    0.75229   1.00
C3       0.06593    0.23443    0.67560   1.00
C3       0.17828    0.46567    0.72809   1.00
H1       0.16151    0.23275    0.72235   1.00
H1       0.18378    0.30868    0.74452   1.00
C5       0.08560    0.35099    0.68334   1.00
C5       0.11903    0.41123    0.69562   1.00
H1       0.11598    0.13886    0.70079   1.00
H1       0.22904    0.40300    0.76590   1.00
H1       0.04043    0.23238    0.66268   1.00
H1       0.17749    0.50899    0.72458   1.00
C6       0.04241    0.34740    0.66534   1.00
C6       0.12266    0.47692    0.68891   1.00
H2       -0.00454   0.29819    0.66539   1.00
H2       0.17400    0.51925    0.69160   1.00
H2       0.02300    0.38240    0.66696   1.00
H2       0.11846    0.47898    0.67253   1.00
C6       0.08095    0.36143    0.64459   1.00
C6       0.06730    0.48929    0.69915   1.00
H2       0.10898    0.33374    0.64407   1.00
H2       0.06435    0.47762    0.71533   1.00
C6       0.03748    0.34434    0.62473   1.00
C6       0.07544    0.56184    0.69693   1.00
H2       0.11997    0.41536    0.64420   1.00
H2       0.01772    0.45193    0.69294   1.00
C6       -0.01211   0.26658    0.62248   1.00
C6       0.13953    0.61684    0.70824   1.00
C6       -0.00365   0.38214    0.62394   1.00
C6       0.07922    0.58267    0.67437   1.00
C6       0.08654    0.36788    0.60624   1.00
C6       0.01222    0.56053    0.70656   1.00
H2       0.01525    0.23831    0.62330   1.00
H2       0.13895    0.60307    0.72415   1.00
H2       -0.05078   0.24730    0.63433   1.00
H2       0.18627    0.62346    0.70143   1.00
H2       -0.03872   0.25475    0.60795   1.00
H2       0.14218    0.66628    0.70780   1.00
H2       -0.02989   0.37377    0.60943   1.00
H2       0.07996    0.63106    0.67295   1.00
H2       -0.04225   0.36401    0.63583   1.00
H2       0.12539    0.58891    0.66722   1.00
H2       0.02992    0.43690    0.62592   1.00
H2       0.03536    0.54406    0.66596   1.00
H2       0.11638    0.34210    0.60596   1.00
H2       0.00758    0.54676    0.72259   1.00
H2       0.05847    0.35660    0.59197   1.00
H2       0.01575    0.61032    0.70550   1.00
H2       0.12201    0.42273    0.60675   1.00
H2       -0.03465   0.52356    0.69894   1.00
C4       0.16523    0.87229    0.70650   1.00
C4       0.19639    0.84680    0.72010   1.00
C3       0.09837    0.86165    0.70972   1.00
C3       0.16595    0.81524    0.73890   1.00
C3       0.20152    0.90988    0.68891   1.00
C3       0.26050    0.85276    0.71495   1.00
C2       0.10345    0.92667    0.67955   1.00
C2       0.25773    0.79223    0.74714   1.00
C3       0.06845    0.88824    0.69674   1.00
C3       0.19541    0.78845    0.75199   1.00
C3       0.16938    0.93642    0.67613   1.00
C3       0.28862    0.82448    0.72864   1.00
H1       0.06864    0.83360    0.72152   1.00
H1       0.12157    0.81114    0.74389   1.00
C5       0.26784    0.91980    0.68441   1.00
C5       0.29499    0.88657    0.69663   1.00
H1       0.02018    0.87899    0.69995   1.00
H1       0.17076    0.76606    0.76529   1.00
H1       0.19375    0.96381    0.66356   1.00
H1       0.33388    0.82730    0.72545   1.00
C6       0.30857    0.96573    0.66698   1.00
C6       0.35905    0.88610    0.69033   1.00
H2       0.30449    1.01167    0.66733   1.00
H2       0.35151    0.83512    0.69261   1.00
H2       0.36304    0.98659    0.66911   1.00
H2       0.36714    0.89238    0.67404   1.00
C6       0.28746    0.92949    0.64581   1.00
C6       0.42473    0.94167    0.70140   1.00
H2       0.23187    0.90001    0.64473   1.00
H2       0.41389    0.94233    0.71753   1.00
C6       0.31494    0.97542    0.62645   1.00
C6       0.49084    0.93634    0.69958   1.00
H2       0.30415    0.89183    0.64526   1.00
H2       0.43600    0.99146    0.69563   1.00
C6       0.28465    1.02327    0.62434   1.00
C6       0.48273    0.87183    0.71038   1.00
C6       0.39380    1.01876    0.62649   1.00
C6       0.51092    0.93592    0.67713   1.00
C6       0.29294    0.92857    0.60747   1.00
C6       0.55037    0.99947    0.71006   1.00
H2       0.22897    0.99429    0.62460   1.00
H2       0.46746    0.87004    0.72619   1.00
H2       0.30157    1.06050    0.63658   1.00
H2       0.44444    0.82533    0.70298   1.00
H2       0.30035    1.05161    0.61011   1.00
H2       0.53050    0.87102    0.71025   1.00
H2       0.41266    1.04686    0.61229   1.00
H2       0.55961    0.93713    0.67604   1.00
H2       0.41182    1.05596    0.63877   1.00
H2       0.47284    0.89003    0.66939   1.00
H2       0.41642    0.98640    0.62839   1.00
H2       0.51557    0.98011    0.66906   1.00
H2       0.23749    0.89729    0.60660   1.00
H2       0.53906    1.00179    0.72605   1.00
H2       0.31060    0.95839    0.59352   1.00
H2       0.59770    0.99784    0.70930   1.00
H2       0.31394    0.89444    0.60787   1.00
H2       0.55954    1.04668    0.70283   1.00
