data_IRMOF10_interpen_symm_ligand4lp_label_a_1.

_audit_creation_method             'generated by an auxiliary program of Tobunporous'

_symmetry_space_group_name_H-M     'P 1'
_symmetry_Int_Tables_number        1
_symmetry_cell_setting             triclinic

_cell_length_a                    22.6523
_cell_length_b                    22.6523
_cell_length_c                    65.9502
_cell_angle_alpha                 90.0000
_cell_angle_beta                  90.0000
_cell_angle_gamma                 120.0000

loop_
_atom_site_label
_atom_site_fract_x
_atom_site_fract_y
_atom_site_fract_z
_atom_site_occupancy
O1       0.00000    -0.00000   0.62500   1.00
Zn1      0.00000    -0.00000   0.59589   1.00
Zn1      0.94848    1.04288    0.63392   1.00
Zn1      0.09439    0.05152    0.63392   1.00
Zn1      -0.04288   0.90561    0.63392   1.00
O2       0.93860    0.02610    0.58587   1.00
O2       0.08750    0.06140    0.58587   1.00
O2       -0.02610   0.91250    0.58587   1.00
O2       0.91305    0.07161    0.61181   1.00
O2       0.00462    0.12022    0.65110   1.00
O2       0.87413    0.98074    0.65071   1.00
O2       0.15856    0.08695    0.61181   1.00
O2       0.10660    0.12587    0.65071   1.00
O2       0.11559    0.99538    0.65110   1.00
O2       -0.07161   0.84144    0.61181   1.00
O2       0.87978    0.88441    0.65110   1.00
O2       0.01926    0.89340    0.65071   1.00
C1       0.91390    0.06020    0.59358   1.00
C1       0.14630    0.08610    0.59358   1.00
C1       -0.06020   0.85370    0.59358   1.00
C1       0.06663    0.14397    0.65673   1.00
C1       0.85603    0.92267    0.65673   1.00
C1       0.07733    0.93337    0.65673   1.00
O1       -0.00000   0.00000    0.87500   1.00
Zn1      -0.00000   0.00000    0.90411   1.00
Zn1      1.04288    0.94848    0.86608   1.00
Zn1      0.05152    0.09439    0.86608   1.00
Zn1      0.90561    -0.04288   0.86608   1.00
O2       0.02610    0.93860    0.91413   1.00
O2       0.06140    0.08750    0.91413   1.00
O2       0.91250    -0.02610   0.91413   1.00
O2       0.07161    0.91305    0.88819   1.00
O2       0.12022    0.00462    0.84890   1.00
O2       0.98074    0.87413    0.84929   1.00
O2       0.08695    0.15856    0.88819   1.00
O2       0.12587    0.10660    0.84929   1.00
O2       0.99538    0.11559    0.84890   1.00
O2       0.84144    -0.07161   0.88819   1.00
O2       0.88441    0.87978    0.84890   1.00
O2       0.89340    0.01926    0.84929   1.00
C1       0.06020    0.91390    0.90642   1.00
C1       0.08610    0.14630    0.90642   1.00
C1       0.85370    -0.06020   0.90642   1.00
C1       0.14397    0.06663    0.84327   1.00
C1       0.92267    0.85603    0.84327   1.00
C1       0.93337    0.07733    0.84327   1.00
O1       0.00000    0.00000    0.37500   1.00
Zn1      0.00000    0.00000    0.40411   1.00
Zn1      0.05152    -0.04288   0.36608   1.00
Zn1      0.90561    0.94848    0.36608   1.00
Zn1      1.04288    0.09439    0.36608   1.00
O2       0.06140    -0.02610   0.41413   1.00
O2       0.91250    0.93860    0.41413   1.00
O2       0.02610    0.08750    0.41413   1.00
O2       0.08695    -0.07161   0.38819   1.00
O2       0.99538    0.87978    0.34890   1.00
O2       0.12587    0.01926    0.34929   1.00
O2       0.84144    0.91305    0.38819   1.00
O2       0.89340    0.87413    0.34929   1.00
O2       0.88441    0.00462    0.34890   1.00
O2       0.07161    0.15856    0.38819   1.00
O2       0.12022    0.11559    0.34890   1.00
O2       0.98074    0.10660    0.34929   1.00
C1       0.08610    -0.06020   0.40642   1.00
C1       0.85370    0.91390    0.40642   1.00
C1       0.06020    0.14630    0.40642   1.00
C1       0.93337    0.85603    0.34327   1.00
C1       0.14397    0.07733    0.34327   1.00
C1       0.92267    0.06663    0.34327   1.00
O1       0.00000    0.00000    0.12500   1.00
Zn1      0.00000    0.00000    0.09589   1.00
Zn1      -0.04288   0.05152    0.13392   1.00
Zn1      0.94848    0.90561    0.13392   1.00
Zn1      0.09439    1.04288    0.13392   1.00
O2       -0.02610   0.06140    0.08587   1.00
O2       0.93860    0.91250    0.08587   1.00
O2       0.08750    0.02610    0.08587   1.00
O2       -0.07161   0.08695    0.11181   1.00
O2       0.87978    0.99538    0.15110   1.00
O2       0.01926    0.12587    0.15071   1.00
O2       0.91305    0.84144    0.11181   1.00
O2       0.87413    0.89340    0.15071   1.00
O2       0.00462    0.88441    0.15110   1.00
O2       0.15856    0.07161    0.11181   1.00
O2       0.11559    0.12022    0.15110   1.00
O2       0.10660    0.98074    0.15071   1.00
C1       -0.06020   0.08610    0.09358   1.00
C1       0.91390    0.85370    0.09358   1.00
C1       0.14630    0.06020    0.09358   1.00
C1       0.85603    0.93337    0.15673   1.00
C1       0.07733    0.14397    0.15673   1.00
C1       0.06663    0.92267    0.15673   1.00
O1       0.66667    0.33333    0.95833   1.00
Zn1      0.66667    0.33333    0.92922   1.00
Zn1      0.61515    0.37621    0.96725   1.00
Zn1      0.76106    0.38485    0.96725   1.00
Zn1      -0.37621   0.23894    0.96725   1.00
O2       0.60527    0.35943    0.91920   1.00
O2       0.75417    0.39473    0.91920   1.00
O2       0.64057    0.24583    0.91920   1.00
O2       0.57972    0.40494    0.94514   1.00
O2       0.67129    0.45355    0.98443   1.00
O2       0.54080    0.31407    0.98404   1.00
O2       0.82523    0.42028    0.94514   1.00
O2       0.77327    0.45920    0.98404   1.00
O2       -0.21774   0.32871    0.98443   1.00
O2       0.59506    0.17477    0.94514   1.00
O2       0.54645    0.21774    0.98443   1.00
O2       -0.31407   0.22673    0.98404   1.00
C1       0.58057    0.39353    0.92691   1.00
C1       0.81297    0.41943    0.92691   1.00
C1       0.60647    0.18703    0.92691   1.00
C1       0.73330    0.47730    0.99006   1.00
C1       0.52270    0.25600    0.99006   1.00
C1       -0.25600   0.26670    0.99006   1.00
O1       0.66667    0.33333    0.20833   1.00
Zn1      0.66667    0.33333    0.23744   1.00
Zn1      0.70954    0.28182    0.19942   1.00
Zn1      0.71818    0.42773    0.19942   1.00
Zn1      0.57227    0.29046    0.19942   1.00
O2       0.69277    0.27193    0.24746   1.00
O2       0.72807    0.42083    0.24746   1.00
O2       0.57917    0.30723    0.24746   1.00
O2       0.73828    0.24638    0.22152   1.00
O2       0.78688    0.33796    0.18224   1.00
O2       0.64740    0.20747    0.18263   1.00
O2       0.75362    0.49189    0.22152   1.00
O2       0.79253    0.43994    0.18263   1.00
O2       0.66204    0.44893    0.18224   1.00
O2       0.50811    0.26172    0.22152   1.00
O2       0.55107    0.21312    0.18224   1.00
O2       0.56006    0.35260    0.18263   1.00
C1       0.72687    0.24723    0.23975   1.00
C1       0.75277    0.47963    0.23975   1.00
C1       0.52037    0.27313    0.23975   1.00
C1       0.81063    0.39997    0.17661   1.00
C1       0.58933    0.18937    0.17661   1.00
C1       0.60003    0.41067    0.17661   1.00
O1       0.66667    0.33333    0.70833   1.00
Zn1      0.66667    0.33333    0.73744   1.00
Zn1      0.71818    0.29046    0.69942   1.00
Zn1      0.57227    0.28182    0.69942   1.00
Zn1      0.70954    0.42773    0.69942   1.00
O2       0.72807    0.30723    0.74746   1.00
O2       0.57917    0.27193    0.74746   1.00
O2       0.69277    0.42083    0.74746   1.00
O2       0.75362    0.26172    0.72152   1.00
O2       0.66204    0.21312    0.68224   1.00
O2       0.79253    0.35260    0.68263   1.00
O2       0.50811    0.24638    0.72152   1.00
O2       0.56006    0.20747    0.68263   1.00
O2       0.55107    0.33796    0.68224   1.00
O2       0.73828    0.49189    0.72152   1.00
O2       0.78688    0.44893    0.68224   1.00
O2       0.64740    0.43994    0.68263   1.00
C1       0.75277    0.27313    0.73975   1.00
C1       0.52037    0.24723    0.73975   1.00
C1       0.72687    0.47963    0.73975   1.00
C1       0.60003    0.18937    0.67661   1.00
C1       0.81063    0.41067    0.67661   1.00
C1       0.58933    0.39997    0.67661   1.00
O1       0.66667    0.33333    0.45833   1.00
Zn1      0.66667    0.33333    0.42922   1.00
Zn1      -0.37621   0.38485    0.46725   1.00
Zn1      0.61515    0.23894    0.46725   1.00
Zn1      0.76106    0.37621    0.46725   1.00
O2       0.64057    0.39473    0.41920   1.00
O2       0.60527    0.24583    0.41920   1.00
O2       0.75417    0.35943    0.41920   1.00
O2       0.59506    0.42028    0.44514   1.00
O2       0.54645    0.32871    0.48443   1.00
O2       -0.31407   0.45920    0.48404   1.00
O2       0.57972    0.17477    0.44514   1.00
O2       0.54080    0.22673    0.48404   1.00
O2       0.67129    0.21774    0.48443   1.00
O2       0.82523    0.40494    0.44514   1.00
O2       -0.21774   0.45355    0.48443   1.00
O2       0.77327    0.31407    0.48404   1.00
C1       0.60647    0.41943    0.42691   1.00
C1       0.58057    0.18703    0.42691   1.00
C1       0.81297    0.39353    0.42691   1.00
C1       0.52270    0.26670    0.49006   1.00
C1       -0.25600   0.47730    0.49006   1.00
C1       0.73330    0.25600    0.49006   1.00
O1       0.33333    0.66667    0.29167   1.00
Zn1      0.33333    0.66667    0.26256   1.00
Zn1      0.28182    0.70954    0.30058   1.00
Zn1      0.42773    0.71818    0.30058   1.00
Zn1      0.29046    0.57227    0.30058   1.00
O2       0.27193    0.69277    0.25254   1.00
O2       0.42083    0.72807    0.25254   1.00
O2       0.30723    0.57917    0.25254   1.00
O2       0.24638    0.73828    0.27848   1.00
O2       0.33796    0.78688    0.31776   1.00
O2       0.20747    0.64740    0.31737   1.00
O2       0.49189    0.75362    0.27848   1.00
O2       0.43994    0.79253    0.31737   1.00
O2       0.44893    0.66204    0.31776   1.00
O2       0.26172    0.50811    0.27848   1.00
O2       0.21312    0.55107    0.31776   1.00
O2       0.35260    0.56006    0.31737   1.00
C1       0.24723    0.72687    0.26025   1.00
C1       0.47963    0.75277    0.26025   1.00
C1       0.27313    0.52037    0.26025   1.00
C1       0.39997    0.81063    0.32339   1.00
C1       0.18937    0.58933    0.32339   1.00
C1       0.41067    0.60003    0.32339   1.00
O1       0.33333    0.66667    0.54167   1.00
Zn1      0.33333    0.66667    0.57078   1.00
Zn1      0.37621    0.61515    0.53275   1.00
Zn1      0.38485    0.76106    0.53275   1.00
Zn1      0.23894    -0.37621   0.53275   1.00
O2       0.35943    0.60527    0.58080   1.00
O2       0.39473    0.75417    0.58080   1.00
O2       0.24583    0.64057    0.58080   1.00
O2       0.40494    0.57972    0.55486   1.00
O2       0.45355    0.67129    0.51557   1.00
O2       0.31407    0.54080    0.51596   1.00
O2       0.42028    0.82523    0.55486   1.00
O2       0.45920    0.77327    0.51596   1.00
O2       0.32871    -0.21774   0.51557   1.00
O2       0.17477    0.59506    0.55486   1.00
O2       0.21774    0.54645    0.51557   1.00
O2       0.22673    -0.31407   0.51596   1.00
C1       0.39353    0.58057    0.57309   1.00
C1       0.41943    0.81297    0.57309   1.00
C1       0.18703    0.60647    0.57309   1.00
C1       0.47730    0.73330    0.50994   1.00
C1       0.25600    0.52270    0.50994   1.00
C1       0.26670    -0.25600   0.50994   1.00
O1       0.33333    0.66667    0.04167   1.00
Zn1      0.33333    0.66667    0.07078   1.00
Zn1      0.38485    -0.37621   0.03275   1.00
Zn1      0.23894    0.61515    0.03275   1.00
Zn1      0.37621    0.76106    0.03275   1.00
O2       0.39473    0.64057    0.08080   1.00
O2       0.24583    0.60527    0.08080   1.00
O2       0.35943    0.75417    0.08080   1.00
O2       0.42028    0.59506    0.05486   1.00
O2       0.32871    0.54645    0.01557   1.00
O2       0.45920    -0.31407   0.01596   1.00
O2       0.17477    0.57972    0.05486   1.00
O2       0.22673    0.54080    0.01596   1.00
O2       0.21774    0.67129    0.01557   1.00
O2       0.40494    0.82523    0.05486   1.00
O2       0.45355    -0.21774   0.01557   1.00
O2       0.31407    0.77327    0.01596   1.00
C1       0.41943    0.60647    0.07309   1.00
C1       0.18703    0.58057    0.07309   1.00
C1       0.39353    0.81297    0.07309   1.00
C1       0.26670    0.52270    0.00994   1.00
C1       0.47730    -0.25600   0.00994   1.00
C1       0.25600    0.73330    0.00994   1.00
O1       0.33333    0.66667    0.79167   1.00
Zn1      0.33333    0.66667    0.76256   1.00
Zn1      0.29046    0.71818    0.80058   1.00
Zn1      0.28182    0.57227    0.80058   1.00
Zn1      0.42773    0.70954    0.80058   1.00
O2       0.30723    0.72807    0.75254   1.00
O2       0.27193    0.57917    0.75254   1.00
O2       0.42083    0.69277    0.75254   1.00
O2       0.26172    0.75362    0.77848   1.00
O2       0.21312    0.66204    0.81776   1.00
O2       0.35260    0.79253    0.81737   1.00
O2       0.24638    0.50811    0.77848   1.00
O2       0.20747    0.56006    0.81737   1.00
O2       0.33796    0.55107    0.81776   1.00
O2       0.49189    0.73828    0.77848   1.00
O2       0.44893    0.78688    0.81776   1.00
O2       0.43994    0.64740    0.81737   1.00
C1       0.27313    0.75277    0.76025   1.00
C1       0.24723    0.52037    0.76025   1.00
C1       0.47963    0.72687    0.76025   1.00
C1       0.18937    0.60003    0.82339   1.00
C1       0.41067    0.81063    0.82339   1.00
C1       0.39997    0.58933    0.82339   1.00
C4       -0.17240   0.62342    0.54095   1.00
C4       -0.14749   0.68045    0.55439   1.00
C3       -0.15017   0.57471    0.54205   1.00
C3       -0.10425   0.68883    0.57115   1.00
C3       -0.22135   0.61400    0.52573   1.00
C3       -0.16610   0.73148    0.55119   1.00
C2       -0.22521   0.50625    0.51444   1.00
C2       -0.09438   0.79744    0.58098   1.00
C3       -0.17594   0.51770    0.52928   1.00
C3       -0.07817   0.74565    0.58400   1.00
C3       -0.24660   0.55505    0.51310   1.00
C3       -0.13814   0.78876    0.56455   1.00
H1       -0.11391   0.57920    0.55202   1.00
H1       -0.09063   0.65362    0.57478   1.00
C5       -0.24352   0.66286    0.52334   1.00
C5       -0.21176   0.72441    0.53508   1.00
H1       -0.15802   0.48430    0.53089   1.00
H1       -0.04702   0.74883    0.59578   1.00
H1       -0.28179   0.54634    0.50220   1.00
H1       -0.14981   0.82633    0.56268   1.00
C6       -0.30058   0.64852    0.50865   1.00
C6       -0.22522   0.78218    0.53053   1.00
H2       -0.34083   0.59557    0.51031   1.00
H2       -0.17714   0.83031    0.53101   1.00
H2       -0.32707   0.67564    0.51283   1.00
H2       -0.24082   0.78098    0.51488   1.00
C6       -0.27591   0.66599    0.48610   1.00
C6       -0.27987   0.78317    0.54490   1.00
H2       -0.24097   0.64722    0.48266   1.00
H2       -0.27011   0.77441    0.56054   1.00
C6       -0.33182   0.63945    0.46916   1.00
C6       -0.28694   0.84850    0.54467   1.00
H2       -0.24525   0.72144    0.48483   1.00
H2       -0.32934   0.73932    0.54104   1.00
C6       -0.37077   0.56049    0.46776   1.00
C6       -0.22213   0.91155    0.55312   1.00
C6       -0.38355   0.66431    0.47261   1.00
C6       -0.30178   0.86466    0.52306   1.00
C6       -0.29635   0.66775    0.44841   1.00
C6       -0.34765   0.83576    0.55853   1.00
H2       -0.33555   0.54125    0.46565   1.00
H2       -0.20962   0.90139    0.56825   1.00
H2       -0.40038   0.53719    0.48142   1.00
H2       -0.17815   0.92600    0.54338   1.00
H2       -0.40628   0.54272    0.45501   1.00
H2       -0.22934   0.95562    0.55421   1.00
H2       -0.41933   0.64967    0.45998   1.00
H2       -0.31145   0.90730    0.52330   1.00
H2       -0.41328   0.64204    0.48634   1.00
H2       -0.25856   0.87861    0.51301   1.00
H2       -0.35730   0.71969    0.47407   1.00
H2       -0.34638   0.82058    0.51659   1.00
H2       -0.25970   0.65106    0.44513   1.00
H2       -0.33938   0.82478    0.57406   1.00
H2       -0.33335   0.65021    0.43604   1.00
H2       -0.35438   0.88024    0.55897   1.00
H2       -0.26905   0.72340    0.44830   1.00
H2       -0.39525   0.79261    0.55310   1.00
C4       0.37378    0.19933    0.53985   1.00
C4       0.31555    0.16699    0.55284   1.00
C3       0.43991    0.24728    0.54720   1.00
C3       0.32061    0.17481    0.57432   1.00
C3       0.36652    0.18381    0.51866   1.00
C3       0.24935    0.12496    0.54427   1.00
C2       0.49218    0.26223    0.51378   1.00
C2       0.19747    0.10434    0.57903   1.00
C3       0.49744    0.27758    0.53462   1.00
C3       0.26342    0.14477    0.58704   1.00
C3       0.42645    0.21549    0.50638   1.00
C3       0.19237    0.09559    0.55775   1.00
H1       0.44864    0.26250    0.56194   1.00
H1       0.36611    0.20207    0.58155   1.00
C5       0.30074    0.13812    0.51023   1.00
C5       0.24137    0.11286    0.52283   1.00
H1       0.54376    0.31155    0.54086   1.00
H1       0.27045    0.15260    0.60241   1.00
H1       0.42342    0.20538    0.49127   1.00
H1       0.14444    0.06578    0.55222   1.00
C6       0.29492    0.11657    0.48824   1.00
C6       0.17052    0.07435    0.51376   1.00
H2       0.33508    0.10490    0.48483   1.00
H2       0.13886    0.09267    0.52061   1.00
H2       0.24932    0.06764    0.48555   1.00
H2       0.17035    0.08743    0.49791   1.00
C6       0.29581    0.17038    0.47309   1.00
C6       0.13702    -0.00500   0.51570   1.00
H2       0.33573    0.22147    0.47752   1.00
H2       0.14571    -0.01801   0.53096   1.00
C6       0.30538    0.16100    0.45002   1.00
C6       0.05898    -0.04927   0.51104   1.00
H2       0.24795    0.17054    0.47494   1.00
H2       0.16443    -0.02119   0.50557   1.00
C6       0.37711    0.17103    0.44557   1.00
C6       0.01535    -0.03729   0.52686   1.00
C6       0.25030    0.08998    0.44223   1.00
C6       0.04166    -0.03497   0.48951   1.00
C6       0.29848    0.21592    0.43783   1.00
C6       0.03842    -0.12570   0.51211   1.00
H2       0.41717    0.22030    0.45120   1.00
H2       0.02719    -0.04589   0.54227   1.00
H2       0.38392    0.13145    0.45269   1.00
H2       0.02416    0.01454    0.52608   1.00
H2       0.38500    0.16910    0.42932   1.00
H2       -0.03898   -0.07174   0.52431   1.00
H2       0.25444    0.08577    0.42586   1.00
H2       -0.01190   -0.06947   0.48586   1.00
H2       0.25584    0.04955    0.44933   1.00
H2       0.05080    0.01696    0.48835   1.00
H2       0.19928    0.08104    0.44555   1.00
H2       0.07274    -0.04165   0.47810   1.00
H2       0.33679    0.26718    0.44261   1.00
H2       0.04895    -0.13870   0.52711   1.00
H2       0.30524    0.21173    0.42160   1.00
H2       -0.01589   -0.15876   0.50908   1.00
H2       0.24828    0.21062    0.44002   1.00
H2       0.06654    -0.13770   0.50097   1.00
C4       0.80082    0.16852    0.53757   1.00
C4       0.83074    0.13954    0.55034   1.00
C3       0.82293    0.23952    0.53767   1.00
C3       0.88937    0.18029    0.56248   1.00
C3       0.74659    0.12561    0.52413   1.00
C3       0.80164    0.06714    0.55115   1.00
C2       0.74263    0.22770    0.51107   1.00
C2       0.88929    0.08087    0.57690   1.00
C3       0.79505    0.26837    0.52477   1.00
C3       0.91764    0.15197    0.57544   1.00
C3       0.71982    0.15706    0.51115   1.00
C3       0.83175    0.04030    0.56463   1.00
H1       0.85967    0.27283    0.54727   1.00
H1       0.91415    0.23211    0.56221   1.00
C5       0.72022    0.05335    0.52396   1.00
C5       0.74434    0.02360    0.53864   1.00
H1       0.81343    0.31998    0.52552   1.00
H1       0.95979    0.18412    0.58387   1.00
H1       0.68155    0.12831    0.50129   1.00
H1       0.81222    -0.01093   0.56574   1.00
C6       0.66794    0.00959    0.50818   1.00
C6       0.70964    -0.05300   0.54123   1.00
H2       0.68321    0.03502    0.49351   1.00
H2       0.70402    -0.06508   0.55736   1.00
H2       0.66887    -0.03717   0.50526   1.00
H2       0.65680    -0.07808   0.53628   1.00
C6       0.59345    -0.00887   0.51390   1.00
C6       0.74715    -0.08572   0.52990   1.00
H2       0.59366    0.03646    0.51969   1.00
H2       0.80208    -0.05475   0.53247   1.00
C6       0.53779    -0.04064   0.49692   1.00
C6       0.72513    -0.16144   0.53510   1.00
H2       0.57713    -0.04439   0.52665   1.00
H2       0.74026    -0.08231   0.51363   1.00
C6       0.55139    0.01095    0.47959   1.00
C6       0.74341    -0.16892   0.55727   1.00
C6       0.53304    -0.10606   0.48790   1.00
C6       0.64776    -0.20967   0.53167   1.00
C6       0.46753    -0.06035   0.50640   1.00
C6       0.76424    -0.18484   0.52090   1.00
H2       0.55613    0.05819    0.48550   1.00
H2       0.79755    -0.13467   0.56028   1.00
H2       0.59811    0.02385    0.47142   1.00
H2       0.71442    -0.15729   0.56813   1.00
H2       0.50991    -0.00999   0.46855   1.00
H2       0.73221    -0.22088   0.56032   1.00
H2       0.49091    -0.13047   0.47714   1.00
H2       0.63383    -0.26284   0.53393   1.00
H2       0.57966    -0.09430   0.47982   1.00
H2       0.61779    -0.19839   0.54228   1.00
H2       0.52490    -0.14269   0.49985   1.00
H2       0.63327    -0.20435   0.51629   1.00
H2       0.46790    -0.01571   0.51282   1.00
H2       0.81928    -0.15280   0.52288   1.00
H2       0.42695    -0.08241   0.49508   1.00
H2       0.75089    -0.23742   0.52405   1.00
H2       0.45437    -0.09780   0.51850   1.00
H2       0.75237    -0.18204   0.50501   1.00
C4       0.63299    -0.16613   0.96266   1.00
C4       0.69165    -0.13664   0.94981   1.00
C3       0.59514    -0.23739   0.96682   1.00
C3       0.72072    -0.17504   0.94195   1.00
C3       0.61053    -0.12352   0.97182   1.00
C3       0.72316    -0.06610   0.94447   1.00
C2       0.51636    -0.22538   0.98946   1.00
C2       0.80824    -0.07790   0.92300   1.00
C3       0.53880    -0.26618   0.97988   1.00
C3       0.77702    -0.14678   0.92887   1.00
C3       0.55314    -0.15480   0.98511   1.00
C3       0.78019    -0.03936   0.93102   1.00
H1       0.60668    -0.27114   0.96036   1.00
H1       0.70250    -0.22483   0.94559   1.00
C5       0.64483    -0.05184   0.96753   1.00
C5       0.69795    -0.02416   0.95258   1.00
H1       0.51385    -0.31789   0.98232   1.00
H1       0.79540    -0.17725   0.92366   1.00
H1       0.53593    -0.12612   0.99202   1.00
H1       0.80368    0.01044    0.92676   1.00
C6       0.62511    -0.00630   0.97897   1.00
C6       0.72712    0.04840    0.94512   1.00
H2       0.61874    -0.02023   0.99497   1.00
H2       0.73244    0.04924    0.92868   1.00
H2       0.66678    0.04614    0.97951   1.00
H2       0.69109    0.06646    0.94697   1.00
C6       0.56030    -0.00753   0.97009   1.00
C6       0.79595    0.09985    0.95570   1.00
H2       0.52128    -0.06010   0.96673   1.00
H2       0.82898    0.07755    0.95654   1.00
C6       0.52636    0.02515    0.98317   1.00
C6       0.83833    0.17265    0.94617   1.00
H2       0.57423    0.01830    0.95541   1.00
H2       0.78454    0.10554    0.97144   1.00
C6       0.49517    -0.01550   1.00301   1.00
C6       0.86605    0.17002    0.92487   1.00
C6       0.57777    0.10042    0.98852   1.00
C6       0.79584    0.20890    0.94459   1.00
C6       0.46746    0.02371    0.97072   1.00
C6       0.90062    0.21639    0.96005   1.00
H2       0.45945    -0.06915   0.99978   1.00
H2       0.89538    0.14371    0.92541   1.00
H2       0.53441    -0.01307   1.01310   1.00
H2       0.82489    0.14352    0.91398   1.00
H2       0.46758    0.00483    1.01133   1.00
H2       0.89937    0.22123    0.91897   1.00
H2       0.55251    0.12414    0.99638   1.00
H2       0.82719    0.26130    0.93929   1.00
H2       0.61790    0.10400    0.99846   1.00
H2       0.75391    0.18272    0.93389   1.00
H2       0.60155    0.12988    0.97483   1.00
H2       0.77452    0.21017    0.95931   1.00
H2       0.42926    -0.02849   0.96672   1.00
H2       0.93279    0.19335    0.96151   1.00
H2       0.44181    0.04564    0.97929   1.00
H2       0.93212    0.26770    0.95395   1.00
H2       0.48648    0.05279    0.95668   1.00
H2       0.88431    0.22131    0.97523   1.00
C4       0.19922    0.37367    0.96019   1.00
C4       0.16690    0.31542    0.94722   1.00
C3       0.24617    0.44003    0.95277   1.00
C3       0.17366    0.32058    0.92571   1.00
C3       0.18473    0.36621    0.98145   1.00
C3       0.12598    0.24908    0.95582   1.00
C2       0.26207    0.49210    0.98625   1.00
C2       0.10430    0.19732    0.92102   1.00
C3       0.27643    0.49757    0.96535   1.00
C3       0.14365    0.26339    0.91298   1.00
C3       0.21633    0.42615    0.99372   1.00
C3       0.09660    0.19210    0.94234   1.00
H1       0.26066    0.44895    0.93797   1.00
H1       0.20008    0.36615    0.91846   1.00
C5       0.14011    0.30024    0.98994   1.00
C5       0.11496    0.24095    0.97730   1.00
H1       0.30965    0.54406    0.95905   1.00
H1       0.15069    0.27050    0.89760   1.00
H1       0.20693    0.42298    1.00888   1.00
H1       0.06756    0.14408    0.94789   1.00
C6       0.11956    0.29411    1.01203   1.00
C6       0.07766    0.17005    0.98638   1.00
H2       0.10736    0.33378    1.01563   1.00
H2       0.09628    0.13892    0.97933   1.00
H2       0.07108    0.24811    1.01486   1.00
H2       0.09161    0.17006    1.00215   1.00
C6       0.17448    0.29579    1.02687   1.00
C6       -0.00186   0.13560    0.98479   1.00
H2       0.22513    0.33619    1.02226   1.00
H2       -0.01583   0.14405    0.96964   1.00
C6       0.16600    0.30512    1.05002   1.00
C6       -0.04504   0.05748    0.98948   1.00
H2       0.17528    0.24830    1.02487   1.00
H2       -0.01809   0.16254    0.99510   1.00
C6       0.17524    0.37645    1.05463   1.00
C6       -0.03308   0.01439    0.97345   1.00
C6       0.09568    0.24938    1.05805   1.00
C6       -0.02933   0.04049    1.01087   1.00
C6       0.22202    0.29910    1.06187   1.00
C6       -0.12177   0.03592    0.98879   1.00
H2       0.22399    0.41696    1.04884   1.00
H2       -0.04267   0.02603    0.95813   1.00
H2       0.13492    0.38261    1.04776   1.00
H2       0.01904    0.02392    0.97396   1.00
H2       0.17396    0.38423    1.07092   1.00
H2       -0.06683   -0.04005   0.97603   1.00
H2       0.09216    0.25340    1.07446   1.00
H2       -0.06310   -0.01318   1.01455   1.00
H2       0.05452    0.25427    1.05120   1.00
H2       0.02290    0.05035    1.01175   1.00
H2       0.08728    0.19861    1.05462   1.00
H2       -0.03598   0.07121    1.02240   1.00
H2       0.27285    0.33790    1.05691   1.00
H2       -0.13575   0.04619    0.97389   1.00
H2       0.21849    0.30573    1.07814   1.00
H2       -0.15412   -0.01848   0.99184   1.00
H2       0.21735    0.24921    1.05956   1.00
H2       -0.13375   0.06363    1.00007   1.00
C4       0.16850    0.80081    0.96243   1.00
C4       0.13952    0.83072    0.94967   1.00
C3       0.23952    0.82303    0.96236   1.00
C3       0.18027    0.88944    0.93755   1.00
C3       0.12557    0.74647    0.97584   1.00
C3       0.06711    0.80153    0.94882   1.00
C2       0.22768    0.74263    0.98894   1.00
C2       0.08084    0.88927    0.92310   1.00
C3       0.26838    0.79515    0.97527   1.00
C3       0.15195    0.91771    0.92459   1.00
C3       0.15703    0.71972    0.98882   1.00
C3       0.04027    0.83164    0.93534   1.00
H1       0.27285    0.85984    0.95279   1.00
H1       0.23209    0.91428    0.93785   1.00
C5       0.05329    0.72000    0.97598   1.00
C5       0.02356    0.74414    0.96130   1.00
H1       0.32000    0.81360    0.97454   1.00
H1       0.18411    0.95992    0.91619   1.00
H1       0.12826    0.68138    0.99866   1.00
H1       -0.01096   0.81205    0.93421   1.00
C6       0.00950    0.66761    0.99173   1.00
C6       -0.05303   0.70935    0.95867   1.00
H2       0.03484    0.68283    1.00641   1.00
H2       -0.06502   0.70380    0.94253   1.00
H2       -0.03732   0.66844    0.99464   1.00
H2       -0.07807   0.65648    0.96359   1.00
C6       -0.00882   0.59318    0.98598   1.00
C6       -0.08590   0.74671    0.97000   1.00
H2       0.03659    0.59350    0.98020   1.00
H2       -0.05499   0.80166    0.96746   1.00
C6       -0.04062   0.53743    1.00293   1.00
C6       -0.16162   0.72460    0.96476   1.00
H2       -0.04427   0.57689    0.97321   1.00
H2       -0.08258   0.73974    0.98627   1.00
C6       0.01090    0.55101    1.02029   1.00
C6       -0.16902   0.74297    0.94260   1.00
C6       -0.10613   0.53252    1.01192   1.00
C6       -0.20979   0.64720    0.96815   1.00
C6       -0.06017   0.46724    0.99342   1.00
C6       -0.18519   0.76357    0.97897   1.00
H2       0.05820    0.55586    1.01438   1.00
H2       -0.13481   0.79714    0.93962   1.00
H2       0.02369    0.59767    1.02847   1.00
H2       -0.15727   0.71409    0.93173   1.00
H2       -0.01005   0.50947    1.03130   1.00
H2       -0.22099   0.73171    0.93953   1.00
H2       -0.13055   0.49033    1.02266   1.00
H2       -0.26296   0.63320    0.96587   1.00
H2       -0.09448   0.57907    1.02002   1.00
H2       -0.19838   0.61734    0.95754   1.00
H2       -0.14271   0.52439    0.99996   1.00
H2       -0.20452   0.63265    0.98353   1.00
H2       -0.01545   0.46773    0.98701   1.00
H2       -0.15320   0.81862    0.97702   1.00
H2       -0.08224   0.42660    1.00472   1.00
H2       -0.23777   0.75015    0.97580   1.00
H2       -0.09755   0.45410    0.98130   1.00
H2       -0.18246   0.75162    0.99486   1.00
C4       0.17067    0.37704    0.45885   1.00
C4       0.14233    0.32093    0.44502   1.00
C3       0.23622    0.40228    0.46780   1.00
C3       0.18027    0.29084    0.43755   1.00
C3       0.13267    0.40971    0.46412   1.00
C3       0.07353    0.29326    0.43822   1.00
C2       0.22944    0.49262    0.48604   1.00
C2       0.08404    0.20533    0.41783   1.00
C3       0.26496    0.45850    0.48091   1.00
C3       0.15203    0.23460    0.42445   1.00
C3       0.16393    0.46705    0.47743   1.00
C3       0.04656    0.23572    0.42497   1.00
H1       0.26527    0.38033    0.46530   1.00
H1       0.23007    0.30910    0.44118   1.00
C5       0.06525    0.38481    0.45625   1.00
C5       0.03372    0.32319    0.44454   1.00
H1       0.31257    0.47438    0.48680   1.00
H1       0.18199    0.21508    0.41967   1.00
H1       0.13871    0.49191    0.48142   1.00
H1       -0.00230   0.21434    0.41991   1.00
C6       0.02860    0.42420    0.46022   1.00
C6       -0.04110   0.28903    0.43898   1.00
H2       0.06417    0.47840    0.45802   1.00
H2       -0.06431   0.23425    0.44136   1.00
H2       -0.00945   0.41433    0.44865   1.00
H2       -0.06958   0.30201    0.44959   1.00
C6       -0.00617   0.40942    0.48161   1.00
C6       -0.05373   0.30602    0.41691   1.00
H2       0.02880    0.40951    0.49306   1.00
H2       -0.01803   0.30262    0.40648   1.00
C6       -0.03228   0.45789    0.48916   1.00
C6       -0.12718   0.26221    0.40792   1.00
H2       -0.04927   0.35731    0.48145   1.00
H2       -0.04038   0.35953    0.41664   1.00
C6       0.02747    0.53130    0.49294   1.00
C6       -0.14607   0.18689    0.40473   1.00
C6       -0.08313   0.46047    0.47397   1.00
C6       -0.18158   0.26457    0.42161   1.00
C6       -0.07000   0.43019    0.50965   1.00
C6       -0.12937   0.29178    0.38687   1.00
H2       0.06488    0.53112    0.50336   1.00
H2       -0.10801   0.18354    0.39539   1.00
H2       0.05373    0.55549    0.47890   1.00
H2       -0.14961   0.16163    0.41910   1.00
H2       0.00920    0.56344    0.49953   1.00
H2       -0.19532   0.15791    0.39718   1.00
H2       -0.10471   0.49045    0.48004   1.00
H2       -0.23184   0.23796    0.41451   1.00
H2       -0.05793   0.48394    0.45972   1.00
H2       -0.18543   0.24009    0.43617   1.00
H2       -0.12499   0.40926    0.47072   1.00
H2       -0.16872   0.31714    0.42445   1.00
H2       -0.03606   0.42802    0.52101   1.00
H2       -0.09230   0.29063    0.37652   1.00
H2       -0.08885   0.46267    0.51563   1.00
H2       -0.17965   0.26254    0.37990   1.00
H2       -0.11366   0.37892    0.50789   1.00
H2       -0.11780   0.34456    0.38817   1.00
C4       0.63176    0.80150    0.46223   1.00
C4       0.68885    0.83367    0.44882   1.00
C3       0.63110    0.76331    0.47949   1.00
C3       0.75178    0.83598    0.45289   1.00
C3       0.57257    0.80711    0.45845   1.00
C3       0.68378    0.86507    0.43059   1.00
C2       0.51766    0.73923    0.48991   1.00
C2       0.80324    0.89577    0.42123   1.00
C3       0.57601    0.73337    0.49299   1.00
C3       0.80718    0.86575    0.43949   1.00
C3       0.51769    0.77618    0.47262   1.00
C3       0.74124    0.89452    0.41730   1.00
H1       0.67037    0.75524    0.48279   1.00
H1       0.75996    0.81672    0.46583   1.00
C5       0.56909    0.84248    0.44085   1.00
C5       0.62274    0.86688    0.42609   1.00
H1       0.57880    0.70672    0.50520   1.00
H1       0.85106    0.86551    0.44327   1.00
H1       0.47493    0.77947    0.47053   1.00
H1       0.73942    0.91691    0.40413   1.00
C6       0.50935    0.85425    0.43819   1.00
C6       0.61541    0.89374    0.40578   1.00
H2       0.49857    0.87030    0.45264   1.00
H2       0.63362    0.87341    0.39388   1.00
H2       0.52251    0.89835    0.42869   1.00
H2       0.56221    0.87271    0.40157   1.00
C6       0.44441    0.79090    0.42927   1.00
C6       0.65183    0.97353    0.40493   1.00
H2       0.43650    0.74458    0.43686   1.00
H2       0.70226    0.99535    0.41190   1.00
C6       0.37558    0.79145    0.43006   1.00
C6       0.66075    1.00749    0.38362   1.00
H2       0.45512    0.78520    0.41345   1.00
H2       0.62322    0.98954    0.41462   1.00
C6       0.35088    0.78842    0.45219   1.00
C6       0.71003    0.99635    0.36992   1.00
C6       0.38151    0.85513    0.41938   1.00
C6       0.59149    0.98029    0.37261   1.00
C6       0.32018    0.72724    0.41884   1.00
C6       0.69213    1.08553    0.38662   1.00
H2       0.34724    0.74458    0.46025   1.00
H2       0.75908    1.01403    0.37740   1.00
H2       0.38547    0.83417    0.46063   1.00
H2       0.68911    0.94272    0.36615   1.00
H2       0.30067    0.78405    0.45254   1.00
H2       0.71962    1.02413    0.35565   1.00
H2       0.33212    0.85260    0.41875   1.00
H2       0.59765    1.00772    0.35844   1.00
H2       0.41648    0.90160    0.42751   1.00
H2       0.56936    0.92642    0.36888   1.00
H2       0.40019    0.85926    0.40390   1.00
H2       0.55536    0.98621    0.38212   1.00
H2       0.31344    0.68068    0.42593   1.00
H2       0.74160    1.10747    0.39416   1.00
H2       0.27093    0.72509    0.41910   1.00
H2       0.69979    1.11164    0.37211   1.00
H2       0.33404    0.72712    0.40299   1.00
H2       0.65896    1.09678    0.39585   1.00
C4       0.19941    -0.17445   0.46012   1.00
C4       0.16961    -0.14855   0.44616   1.00
C3       0.17527    -0.19313   0.48038   1.00
C3       0.10931    -0.14624   0.45077   1.00
C3       0.25560    -0.18222   0.45385   1.00
C3       0.20055    -0.12388   0.42678   1.00
C2       0.25745    -0.22998   0.48805   1.00
C2       0.11118    -0.09309   0.41835   1.00
C3       0.20310    -0.22037   0.49391   1.00
C3       0.08109    -0.11908   0.43735   1.00
C3       0.28224    -0.21051   0.46806   1.00
C3       0.17042    -0.09627   0.41359   1.00
H1       0.13701    -0.18700   0.48612   1.00
H1       0.08325    -0.16485   0.46396   1.00
C5       0.28396    -0.16163   0.43392   1.00
C5       0.25967    -0.12750   0.42094   1.00
H1       0.18322    -0.23308   0.50829   1.00
H1       0.03768    -0.11864   0.44161   1.00
H1       0.32188    -0.21725   0.46411   1.00
H1       0.19121    -0.07781   0.39974   1.00
C6       0.33852    -0.17683   0.42676   1.00
C6       0.29606    -0.09466   0.40132   1.00
H2       0.32427    -0.22868   0.43115   1.00
H2       0.30022    -0.04477   0.39990   1.00
H2       0.33951    -0.17983   0.41032   1.00
H2       0.34935    -0.08114   0.40178   1.00
C6       0.41168    -0.12379   0.43449   1.00
C6       0.26157    -0.14021   0.38220   1.00
H2       0.40930    -0.11298   0.45054   1.00
H2       0.20630    -0.16220   0.38313   1.00
C6       0.46927    -0.14228   0.43191   1.00
C6       0.28520    -0.10596   0.36086   1.00
H2       0.42751    -0.07565   0.42664   1.00
H2       0.27001    -0.18363   0.38290   1.00
C6       0.45607    -0.20413   0.44526   1.00
C6       0.26507    -0.05058   0.35733   1.00
C6       0.47714    -0.15768   0.40949   1.00
C6       0.36319    -0.07391   0.35800   1.00
C6       0.53790    -0.08037   0.43885   1.00
C6       0.24913    -0.16156   0.34433   1.00
H2       0.44916    -0.19531   0.46115   1.00
H2       0.21041    -0.07134   0.35957   1.00
H2       0.41064    -0.25057   0.44038   1.00
H2       0.29196    -0.00773   0.36767   1.00
H2       0.49872    -0.21365   0.44444   1.00
H2       0.27750    -0.03037   0.34193   1.00
H2       0.52053    -0.16570   0.40763   1.00
H2       0.37843    -0.05452   0.34259   1.00
H2       0.43185    -0.20368   0.40425   1.00
H2       0.39108    -0.03128   0.36836   1.00
H2       0.48507    -0.11548   0.39970   1.00
H2       0.37893    -0.11152   0.36082   1.00
H2       0.53532    -0.06778   0.45469   1.00
H2       0.19378    -0.18538   0.34555   1.00
H2       0.57974    -0.09100   0.43745   1.00
H2       0.26369    -0.13999   0.32912   1.00
H2       0.55077    -0.03534   0.42970   1.00
H2       0.26245    -0.20151   0.34577   1.00
C4       0.36700    0.16611    0.03733   1.00
C4       0.30912    0.14064    0.05044   1.00
C3       0.38275    0.12224    0.02597   1.00
C3       0.25913    0.07008    0.05148   1.00
C3       0.41146    0.23806    0.03535   1.00
C3       0.30000    0.18678    0.06309   1.00
C2       0.48215    0.21759    0.01006   1.00
C2       0.19382    0.08864    0.07768   1.00
C3       0.43833    0.14706    0.01266   1.00
C3       0.20339    0.04470    0.06474   1.00
C3       0.46730    0.26127    0.02155   1.00
C3       0.24274    0.15883    0.07646   1.00
H1       0.35482    0.07058    0.02708   1.00
H1       0.26098    0.03455    0.04249   1.00
C5       0.39986    0.28471    0.04705   1.00
C5       0.34707    0.25870    0.06210   1.00
H1       0.44678    0.11276    0.00483   1.00
H1       0.16928    -0.00676   0.06482   1.00
H1       0.49976    0.31206    0.01963   1.00
H1       0.23479    0.18994    0.08579   1.00
C6       0.44290    0.36061    0.04321   1.00
C6       0.34092    0.30605    0.07707   1.00
H2       0.44833    0.36966    0.02691   1.00
H2       0.33140    0.28333    0.09214   1.00
H2       0.41646    0.38755    0.04765   1.00
H2       0.38937    0.35268    0.07928   1.00
C6       0.51389    0.39405    0.05411   1.00
C6       0.28560    0.32503    0.07090   1.00
H2       0.53661    0.36169    0.05216   1.00
H2       0.23951    0.27925    0.06580   1.00
C6       0.56835    0.46828    0.04772   1.00
C6       0.26408    0.36087    0.08724   1.00
H2       0.50489    0.39388    0.07040   1.00
H2       0.30445    0.35809    0.05759   1.00
C6       0.59228    0.47110    0.02551   1.00
C6       0.22664    0.31288    0.10536   1.00
C6       0.54101    0.51838    0.05023   1.00
C6       0.32625    0.42715    0.09524   1.00
C6       0.63173    0.49303    0.06164   1.00
C6       0.21391    0.38027    0.07731   1.00
H2       0.61086    0.43544    0.02316   1.00
H2       0.18309    0.26510    0.10018   1.00
H2       0.55105    0.45833    0.01478   1.00
H2       0.26034    0.30053    0.11383   1.00
H2       0.63355    0.52204    0.02166   1.00
H2       0.20770    0.33660    0.11596   1.00
H2       0.58086    0.57072    0.04713   1.00
H2       0.31016    0.45425    0.10551   1.00
H2       0.49919    0.50603    0.03974   1.00
H2       0.36100    0.41591    0.10360   1.00
H2       0.52249    0.51634    0.06564   1.00
H2       0.35435    0.46126    0.08273   1.00
H2       0.65351    0.45971    0.06028   1.00
H2       0.16863    0.33506    0.07157   1.00
H2       0.67149    0.54461    0.05767   1.00
H2       0.19702    0.40511    0.08818   1.00
H2       0.61838    0.49351    0.07752   1.00
H2       0.23788    0.41527    0.06463   1.00
C4       0.80079    0.63232    0.03757   1.00
C4       0.83311    0.68970    0.05087   1.00
C3       0.75404    0.62684    0.02221   1.00
C3       0.82655    0.74867    0.04838   1.00
C3       0.81510    0.57780    0.03950   1.00
C3       0.87383    0.68902    0.06735   1.00
C2       0.73796    0.51788    0.01002   1.00
C2       0.89570    0.80438    0.07834   1.00
C3       0.72378    0.57159    0.00877   1.00
C3       0.85655    0.80417    0.06174   1.00
C3       0.78351    0.52263    0.02544   1.00
C3       0.90321    0.74641    0.08067   1.00
H1       0.73968    0.66246    0.02034   1.00
H1       0.80029    0.75379    0.03666   1.00
C5       0.85952    0.57908    0.05522   1.00
C5       0.88465    0.63231    0.07012   1.00
H1       0.69070    0.57080    -0.00202   1.00
H1       0.84967    0.84506    0.05916   1.00
H1       0.79278    0.48315    0.02625   1.00
H1       0.93210    0.74760    0.09264   1.00
C6       0.87989    0.52478    0.05574   1.00
C6       0.92172    0.62900    0.08882   1.00
H2       0.89218    0.51651    0.04040   1.00
H2       0.90305    0.64367    0.10203   1.00
H2       0.92828    0.54257    0.06347   1.00
H2       0.90761    0.57683    0.09256   1.00
C6       0.82476    0.45655    0.06580   1.00
C6       1.00127    0.67273    0.08693   1.00
H2       0.77420    0.44343    0.06021   1.00
H2       1.01542    0.72239    0.08034   1.00
C6       0.83307    0.39237    0.06318   1.00
C6       1.04425    0.68547    0.10671   1.00
H2       0.82384    0.46605    0.08202   1.00
H2       1.01751    0.64786    0.07584   1.00
C6       0.82397    0.36867    0.04075   1.00
C6       1.03229    0.73028    0.12210   1.00
C6       0.90326    0.40580    0.07098   1.00
C6       1.02828    0.61764    0.11706   1.00
C6       0.77684    0.33296    0.07581   1.00
C6       1.12104    0.72424    0.10096   1.00
H2       0.77532    0.35982    0.03469   1.00
H2       1.04207    0.77813    0.11515   1.00
H2       0.86443    0.40643    0.03118   1.00
H2       0.98013    0.70426    0.12776   1.00
H2       0.82513    0.32126    0.03929   1.00
H2       1.06592    0.74279    0.13520   1.00
H2       0.90664    0.35940    0.07043   1.00
H2       1.06191    0.62690    0.13000   1.00
H2       0.94455    0.44401    0.06170   1.00
H2       0.97599    0.59045    0.12266   1.00
H2       0.91156    0.42393    0.08662   1.00
H2       1.03492    0.58452    0.10642   1.00
H2       0.72610    0.32091    0.07076   1.00
H2       1.13520    0.77300    0.09377   1.00
H2       0.78025    0.28672    0.07436   1.00
H2       1.15324    0.73475    0.11433   1.00
H2       0.78141    0.34608    0.09189   1.00
H2       1.13300    0.69454    0.09042   1.00
C4       -0.17445   0.19942    0.03989   1.00
C4       -0.14854   0.16962    0.05384   1.00
C3       -0.19321   0.17522    0.01963   1.00
C3       -0.14632   0.10927    0.04925   1.00
C3       -0.18213   0.25567    0.04615   1.00
C3       -0.12379   0.20062    0.07322   1.00
C2       -0.22999   0.25746    0.01196   1.00
C2       -0.09308   0.11120    0.08166   1.00
C3       -0.22046   0.20304    0.00610   1.00
C3       -0.11916   0.08105    0.06266   1.00
C3       -0.21042   0.28230    0.03194   1.00
C3       -0.09618   0.17048    0.08640   1.00
H1       -0.18715   0.13691    0.01389   1.00
H1       -0.16499   0.08317    0.03606   1.00
C5       -0.16145   0.28409    0.06607   1.00
C5       -0.12732   0.25980    0.07904   1.00
H1       -0.23324   0.18311    -0.00827   1.00
H1       -0.11878   0.03761    0.05842   1.00
H1       -0.21710   0.32199    0.03588   1.00
H1       -0.07766   0.19131    0.10024   1.00
C6       -0.17656   0.33872    0.07322   1.00
C6       -0.09439   0.29623    0.09865   1.00
H2       -0.22841   0.32450    0.06884   1.00
H2       -0.04452   0.30035    0.10006   1.00
H2       -0.17950   0.33977    0.08966   1.00
H2       -0.08082   0.34953    0.09818   1.00
C6       -0.12349   0.41183    0.06546   1.00
C6       -0.13988   0.26184    0.11778   1.00
H2       -0.11275   0.40938    0.04941   1.00
H2       -0.16192   0.20656    0.11687   1.00
C6       -0.14191   0.46948    0.06803   1.00
C6       -0.10556   0.28552    0.13911   1.00
H2       -0.07534   0.42765    0.07330   1.00
H2       -0.18328   0.27033    0.11709   1.00
C6       -0.20379   0.45630    0.05470   1.00
C6       -0.05021   0.26533    0.14263   1.00
C6       -0.15721   0.47746    0.09045   1.00
C6       -0.07343   0.36353    0.14195   1.00
C6       -0.07998   0.53806    0.06107   1.00
C6       -0.16110   0.24955    0.15566   1.00
H2       -0.19503   0.44932    0.03881   1.00
H2       -0.07103   0.21066    0.14041   1.00
H2       -0.25023   0.41091    0.05960   1.00
H2       -0.00740   0.29215    0.13228   1.00
H2       -0.21325   0.49899    0.05552   1.00
H2       -0.02995   0.27780    0.15803   1.00
H2       -0.16517   0.52088    0.09231   1.00
H2       -0.05398   0.37881    0.15735   1.00
H2       -0.20322   0.43220    0.09571   1.00
H2       -0.03083   0.39135    0.13157   1.00
H2       -0.11499   0.48537    0.10023   1.00
H2       -0.11101   0.37930    0.13914   1.00
H2       -0.06746   0.53541    0.04522   1.00
H2       -0.18498   0.19419    0.15445   1.00
H2       -0.09055   0.57994    0.06246   1.00
H2       -0.13948   0.26414    0.17086   1.00
H2       -0.03493   0.55092    0.07020   1.00
H2       -0.20102   0.26291    0.15422   1.00
C4       0.49861    0.95630    0.87451   1.00
C4       0.52373    1.01239    0.88830   1.00
C3       0.54074    0.93160    0.86657   1.00
C3       0.59051    1.04301    0.89677   1.00
C3       0.42885    0.92309    0.86822   1.00
C3       0.48110    1.03950    0.89405   1.00
C2       0.44705    0.84076    0.84738   1.00
C2       0.57578    1.12797    0.91543   1.00
C3       0.51579    0.87540    0.85350   1.00
C3       0.61598    1.09924    0.90984   1.00
C3       0.40535    0.86579    0.85498   1.00
C3       0.50910    1.09705    0.90732   1.00
H1       0.59130    0.95395    0.86982   1.00
H1       0.62292    1.02517    0.89391   1.00
C5       0.38468    0.94743    0.87503   1.00
C5       0.41241    1.00903    0.88670   1.00
H1       0.54872    0.85992    0.84837   1.00
H1       0.66468    1.11915    0.91536   1.00
H1       0.35597    0.84056    0.85028   1.00
H1       0.48053    1.11805    0.91164   1.00
C6       0.30938    0.90748    0.87001   1.00
C6       0.37040    1.04261    0.89116   1.00
H2       0.29084    0.85337    0.87237   1.00
H2       0.40196    1.09743    0.88886   1.00
H2       0.27914    0.91701    0.88093   1.00
H2       0.33062    1.02928    0.87990   1.00
C6       0.29262    0.92199    0.84813   1.00
C6       0.33728    1.02538    0.91280   1.00
H2       0.32946    0.92227    0.83736   1.00
H2       0.37481    1.02915    0.92392   1.00
C6       0.21945    0.87303    0.83963   1.00
C6       0.30568    1.06866    0.92079   1.00
H2       0.30116    0.97394    0.84796   1.00
H2       0.29744    0.97174    0.91282   1.00
C6       0.20704    0.79986    0.83630   1.00
C6       0.36109    1.14416    0.92433   1.00
C6       0.16342    0.86991    0.85382   1.00
C6       0.25096    1.06576    0.90608   1.00
C6       0.21243    0.90050    0.81873   1.00
C6       0.27070    1.03891    0.94150   1.00
H2       0.24643    0.80042    0.82661   1.00
H2       0.40112    1.14792    0.93441   1.00
H2       0.20708    0.77579    0.85060   1.00
H2       0.38497    1.16953    0.91015   1.00
H2       0.15781    0.76738    0.82908   1.00
H2       0.33927    1.17279    0.93121   1.00
H2       0.11293    0.83957    0.84707   1.00
H2       0.22584    1.09199    0.91246   1.00
H2       0.16307    0.84656    0.86831   1.00
H2       0.27376    1.09033    0.89169   1.00
H2       0.17180    0.92095    0.85675   1.00
H2       0.21206    1.01306    0.90299   1.00
H2       0.25048    0.90304    0.80804   1.00
H2       0.30738    1.04043    0.95254   1.00
H2       0.16219    0.86767    0.81209   1.00
H2       0.24819    1.06778    0.94778   1.00
H2       0.21930    0.95159    0.82014   1.00
H2       0.23006    0.98598    0.93992   1.00
C4       0.03490    0.53185    0.87109   1.00
C4       -0.02407   0.50153    0.88383   1.00
C3       0.08886    0.51713    0.87318   1.00
C3       -0.03656   0.44918    0.89806   1.00
C3       0.04104    0.57887    0.85563   1.00
C3       -0.07300   0.52372    0.88246   1.00
C2       0.15259    0.59054    0.84472   1.00
C2       -0.14157   0.44253    0.91028   1.00
C3       0.14580    0.54525    0.86035   1.00
C3       -0.09330   0.42074    0.91097   1.00
C3       0.09966    0.60609    0.84281   1.00
C3       -0.12990   0.49372    0.89595   1.00
H1       0.08915    0.48596    0.88423   1.00
H1       -0.00526   0.42926    0.89944   1.00
C5       -0.01026   0.59787    0.85335   1.00
C5       -0.06466   0.57421    0.86783   1.00
H1       0.18284    0.53238    0.86259   1.00
H1       -0.09926   0.38334    0.92095   1.00
H1       0.10561    0.63933    0.83155   1.00
H1       -0.16554   0.50849    0.89553   1.00
C6       -0.00677   0.64191    0.83559   1.00
C6       -0.11282   0.60240    0.86802   1.00
H2       0.00614    0.62375    0.82192   1.00
H2       -0.12077   0.61256    0.88364   1.00
H2       -0.05676   0.63435    0.83174   1.00
H2       -0.08949   0.65308    0.86138   1.00
C6       0.04347    0.71985    0.83919   1.00
C6       -0.18205   0.55518    0.85695   1.00
H2       0.09079    0.72706    0.84589   1.00
H2       -0.20106   0.50217    0.86139   1.00
C6       0.06278    0.76844    0.82042   1.00
C6       -0.24125   0.57111    0.86002   1.00
H2       0.02098    0.73724    0.85073   1.00
H2       -0.17148   0.55707    0.84072   1.00
C6       0.10488    0.75420    0.80461   1.00
C6       -0.26698   0.55887    0.88227   1.00
C6       -0.00131   0.76246    0.81000   1.00
C6       -0.21934   0.64529    0.85385   1.00
C6       0.10763    0.84312    0.82782   1.00
C6       -0.30209   0.52230    0.84633   1.00
H2       0.14994    0.75693    0.81158   1.00
H2       -0.28181   0.50723    0.88720   1.00
H2       0.07491    0.70386    0.79784   1.00
H2       -0.22790   0.59449    0.89262   1.00
H2       0.12210    0.79131    0.79229   1.00
H2       -0.31125   0.56551    0.88395   1.00
H2       0.01286    0.79994    0.79786   1.00
H2       -0.26230   0.65437    0.85467   1.00
H2       -0.03238   0.71213    0.80329   1.00
H2       -0.17971   0.68180    0.86393   1.00
H2       -0.03261   0.77086    0.82090   1.00
H2       -0.19966   0.65569    0.83838   1.00
H2       0.15404    0.85030    0.83513   1.00
H2       -0.32005   0.46909    0.85022   1.00
H2       0.12283    0.87905    0.81520   1.00
H2       -0.34500   0.53116    0.84805   1.00
H2       0.08017    0.85673    0.83873   1.00
H2       -0.28749   0.52948    0.83036   1.00
C4       0.46716    0.50132    0.87084   1.00
C4       0.49690    0.47221    0.88361   1.00
C3       0.49215    0.57286    0.87003   1.00
C3       0.55790    0.51290    0.89483   1.00
C3       0.41014    0.45800    0.85831   1.00
C3       0.46519    0.39973    0.88541   1.00
C2       0.40917    0.56055    0.84427   1.00
C2       0.55528    0.41350    0.91023   1.00
C3       0.46435    0.60172    0.85709   1.00
C3       0.58610    0.48458    0.90781   1.00
C3       0.38355    0.48945    0.84526   1.00
C3       0.49534    0.37293    0.89888   1.00
H1       0.53105    0.60662    0.87895   1.00
H1       0.58449    0.56463    0.89382   1.00
C5       0.38093    0.38537    0.85910   1.00
C5       0.40530    0.35608    0.87385   1.00
H1       0.48487    0.65370    0.85716   1.00
H1       0.63004    0.51671    0.91554   1.00
H1       0.34333    0.46038    0.83603   1.00
H1       0.47401    0.32167    0.90067   1.00
C6       0.32541    0.34072    0.84423   1.00
C6       0.36821    0.27986    0.87751   1.00
H2       0.33919    0.36363    0.82919   1.00
H2       0.36470    0.27036    0.89379   1.00
H2       0.32358    0.29237    0.84178   1.00
H2       0.31476    0.25606    0.87328   1.00
C6       0.25288    0.32646    0.85077   1.00
C6       0.40136    0.24272    0.86621   1.00
H2       0.25620    0.37375    0.85610   1.00
H2       0.45675    0.27207    0.86798   1.00
C6       0.19446    0.29404    0.83462   1.00
C6       0.37707    0.16719    0.87235   1.00
H2       0.23729    0.29297    0.86400   1.00
H2       0.39224    0.24396    0.84998   1.00
C6       0.20746    0.34338    0.81667   1.00
C6       0.39801    0.16215    0.89441   1.00
C6       0.18524    0.22593    0.82631   1.00
C6       0.29885    0.12117    0.87008   1.00
C6       0.12658    0.27890    0.84489   1.00
C6       0.41178    0.13904    0.85807   1.00
H2       0.21530    0.39240    0.82206   1.00
H2       0.45287    0.19496    0.89660   1.00
H2       0.25229    0.35295    0.80798   1.00
H2       0.37206    0.17722    0.90538   1.00
H2       0.16431    0.32228    0.80622   1.00
H2       0.38507    0.11004    0.89807   1.00
H2       0.14133    0.20136    0.81618   1.00
H2       0.28306    0.06784    0.87300   1.00
H2       0.22992    0.23435    0.81772   1.00
H2       0.27189    0.13589    0.88082   1.00
H2       0.17742    0.19077    0.83869   1.00
H2       0.28256    0.12489    0.85479   1.00
H2       0.13013    0.32556    0.85084   1.00
H2       0.46724    0.16938    0.85925   1.00
H2       0.08421    0.25656    0.83415   1.00
H2       0.39672    0.08642    0.86186   1.00
H2       0.11387    0.24318    0.85746   1.00
H2       0.39783    0.13997    0.84228   1.00
C4       0.28961    0.16284    0.29217   1.00
C4       0.34614    0.18772    0.27854   1.00
C3       0.25213    0.19725    0.29527   1.00
C3       0.36462    0.24456    0.26552   1.00
C3       0.26912    0.10133    0.30327   1.00
C3       0.38623    0.15507    0.27768   1.00
C2       0.17320    0.11081    0.31897   1.00
C2       0.46246    0.24016    0.25170   1.00
C3       0.19548    0.17196    0.30817   1.00
C3       0.42118    0.27029    0.25257   1.00
C3       0.21092    0.07709    0.31617   1.00
C3       0.44364    0.18309    0.26437   1.00
H1       0.26500    0.24234    0.28842   1.00
H1       0.33728    0.26898    0.26480   1.00
C5       0.30661    0.06596    0.30143   1.00
C5       0.36842    0.09590    0.28981   1.00
H1       0.17046    0.19904    0.30968   1.00
H1       0.43197    0.31159    0.24361   1.00
H1       0.19451    0.03329    0.32421   1.00
H1       0.47364    0.16158    0.26344   1.00
C6       0.28012    -0.00274   0.31156   1.00
C6       0.41537    0.06631    0.29037   1.00
H2       0.22530    -0.03330   0.30907   1.00
H2       0.46791    0.10777    0.29167   1.00
H2       0.29838    -0.03324   0.30401   1.00
H2       0.40932    0.03815    0.30429   1.00
C6       0.29847    0.00275    0.33467   1.00
C6       0.40571    0.01903    0.27180   1.00
H2       0.28942    0.04106    0.34182   1.00
H2       0.40180    0.04303    0.25787   1.00
C6       0.26137    -0.06393   0.34766   1.00
C6       0.46108    -0.00206   0.26836   1.00
H2       0.35340    0.02292    0.33586   1.00
H2       0.35624    -0.02736   0.27347   1.00
C6       0.18385    -0.09009   0.34947   1.00
C6       0.53111    0.06012    0.26263   1.00
C6       0.27204    -0.12129   0.33881   1.00
C6       0.46973    -0.03750   0.28730   1.00
C6       0.29171    -0.04785   0.36942   1.00
C6       0.43807    -0.05334   0.25043   1.00
H2       0.17458    -0.05037   0.35537   1.00
H2       0.52652    0.08694    0.24949   1.00
H2       0.15843    -0.10635   0.33484   1.00
H2       0.55236    0.09641    0.27508   1.00
H2       0.15929    -0.13375   0.35969   1.00
H2       0.56806    0.04425    0.25889   1.00
H2       0.25015    -0.16581   0.34875   1.00
H2       0.50480    -0.05633   0.28426   1.00
H2       0.24750    -0.13784   0.32405   1.00
H2       0.49035    -0.00214   0.30002   1.00
H2       0.32622    -0.10372   0.33698   1.00
H2       0.42087    -0.08064   0.29192   1.00
H2       0.28486    -0.00803   0.37646   1.00
H2       0.43189    -0.03054   0.23658   1.00
H2       0.26705    -0.09286   0.37913   1.00
H2       0.47541    -0.06928   0.24734   1.00
H2       0.34620    -0.03041   0.36919   1.00
H2       0.38947    -0.09907   0.25374   1.00
C4       0.87863    0.70906    0.29261   1.00
C4       0.84901    0.65338    0.27864   1.00
C3       0.92460    0.71404    0.30816   1.00
C3       0.86871    0.60270    0.27787   1.00
C3       0.86213    0.76219    0.29121   1.00
C3       0.79774    0.64741    0.26477   1.00
C2       0.94115    0.82330    0.32023   1.00
C2       0.78679    0.53893    0.25107   1.00
C3       0.95524    0.76953    0.32150   1.00
C3       0.83839    0.54700    0.26460   1.00
C3       0.89472    0.81800    0.30502   1.00
C3       0.76787    0.58970    0.25157   1.00
H1       0.93704    0.67721    0.31050   1.00
H1       0.90631    0.60473    0.28679   1.00
C5       0.81399    0.75856    0.27642   1.00
C5       0.77784    0.69838    0.26424   1.00
H1       0.98817    0.77023    0.33234   1.00
H1       0.85468    0.51205    0.26484   1.00
H1       0.88465    0.85698    0.30442   1.00
H1       0.73093    0.58343    0.24159   1.00
C6       0.80254    0.81849    0.27369   1.00
C6       0.71855    0.68767    0.25104   1.00
H2       0.85167    0.86553    0.27383   1.00
H2       0.67726    0.63517    0.25267   1.00
H2       0.78406    0.81958    0.25856   1.00
H2       0.69481    0.71596    0.25667   1.00
C6       0.75227    0.82021    0.28971   1.00
C6       0.73874    0.70687    0.22825   1.00
H2       0.76460    0.80922    0.30477   1.00
H2       0.77125    0.68667    0.22329   1.00
C6       0.74828    0.88712    0.29127   1.00
C6       0.67956    0.68392    0.21248   1.00
H2       0.70127    0.77795    0.28635   1.00
H2       0.77087    0.76227    0.22737   1.00
C6       0.81603    0.94783    0.29918   1.00
C6       0.63774    0.60517    0.21040   1.00
C6       0.73009    0.90651    0.27060   1.00
C6       0.63097    0.71100    0.21811   1.00
C6       0.69137    0.87514    0.30663   1.00
C6       0.71114    0.71353    0.19140   1.00
H2       0.83088    0.93535    0.31361   1.00
H2       0.67077    0.58434    0.20675   1.00
H2       0.85755    0.96180    0.28846   1.00
H2       0.61064    0.58117    0.22436   1.00
H2       0.81122    0.99294    0.30155   1.00
H2       0.59970    0.58988    0.19839   1.00
H2       0.72264    0.95034    0.27215   1.00
H2       0.59282    0.69890    0.20629   1.00
H2       0.77079    0.92003    0.25958   1.00
H2       0.60381    0.68806    0.23217   1.00
H2       0.68330    0.86409    0.26448   1.00
H2       0.65935    0.76623    0.22008   1.00
H2       0.70213    0.86196    0.32158   1.00
H2       0.74544    0.69535    0.18660   1.00
H2       0.68691    0.92071    0.30835   1.00
H2       0.67174    0.69848    0.17981   1.00
H2       0.64191    0.83369    0.30167   1.00
H2       0.74024    0.76915    0.19178   1.00
C4       0.83081    0.12157    0.29254   1.00
C4       0.80485    0.15130    0.27858   1.00
C3       0.78898    0.07321    0.30749   1.00
C3       0.73408    0.12957    0.27718   1.00
C3       0.90119    0.14038    0.29177   1.00
C3       0.85067    0.20482    0.26538   1.00
C2       0.88247    0.05888    0.32013   1.00
C2       0.75268    0.21367    0.25105   1.00
C3       0.81381    0.04250    0.32081   1.00
C3       0.70871    0.15994    0.26392   1.00
C3       0.92438    0.10764    0.30553   1.00
C3       0.82282    0.23466    0.25218   1.00
H1       0.73905    0.05899    0.30940   1.00
H1       0.69823    0.09039    0.28559   1.00
C5       0.94644    0.19090    0.27761   1.00
C5       0.92210    0.22693    0.26550   1.00
H1       0.78097    0.00780    0.33119   1.00
H1       0.65715    0.14211    0.26369   1.00
H1       0.97396    0.11933    0.30535   1.00
H1       0.85383    0.27314    0.24267   1.00
C6       1.01893    0.20499    0.27548   1.00
C6       0.97089    0.28834    0.25304   1.00
H2       1.01857    0.15669    0.27529   1.00
H2       0.95780    0.32827    0.25485   1.00
H2       1.03992    0.22556    0.26062   1.00
H2       1.02229    0.31283    0.25919   1.00
C6       1.06812    0.25432    0.29219   1.00
C6       0.97327    0.27111    0.23013   1.00
H2       1.04309    0.23965    0.30699   1.00
H2       0.92141    0.23791    0.22458   1.00
C6       1.13991    0.26057    0.29428   1.00
C6       1.00980    0.33228    0.21501   1.00
H2       1.07555    0.30506    0.28922   1.00
H2       0.99820    0.24052    0.22921   1.00
C6       1.13428    0.19294    0.30171   1.00
C6       0.97097    0.37225    0.21293   1.00
C6       1.17987    0.28213    0.27402   1.00
C6       1.08435    0.38200    0.22150   1.00
C6       1.18175    0.31624    0.31033   1.00
C6       1.01140    0.30365    0.19374   1.00
H2       1.10534    0.17574    0.31584   1.00
H2       0.91781    0.33834    0.20868   1.00
H2       1.10902    0.15245    0.29054   1.00
H2       0.97152    0.39734    0.22707   1.00
H2       1.18460    0.19916    0.30447   1.00
H2       0.99412    0.41175    0.20133   1.00
H2       1.23157    0.29109    0.27600   1.00
H2       1.11082    0.42171    0.21012   1.00
H2       1.15499    0.24250    0.26256   1.00
H2       1.08602    0.40718    0.23575   1.00
H2       1.18333    0.32890    0.26824   1.00
H2       1.11245    0.35488    0.22348   1.00
H2       1.15604    0.30311    0.32502   1.00
H2       0.95983    0.26868    0.18834   1.00
H2       1.23227    0.32220    0.31244   1.00
H2       1.03608    0.34451    0.18259   1.00
H2       1.18867    0.36563    0.30574   1.00
H2       1.03938    0.27600    0.19413   1.00
C4       0.82905    0.70025    0.79599   1.00
C4       0.80253    0.64166    0.78313   1.00
C3       0.79283    0.73546    0.79994   1.00
C3       0.73515    0.60999    0.77507   1.00
C3       0.89426    0.72535    0.80535   1.00
C3       0.84423    0.61290    0.77801   1.00
C2       0.88112    0.81670    0.82276   1.00
C2       0.74999    0.52522    0.75634   1.00
C3       0.81780    0.79170    0.81299   1.00
C3       0.70969    0.55376    0.76200   1.00
C3       0.91770    0.78255    0.81863   1.00
C3       0.81650    0.55585    0.76456   1.00
H1       0.74725    0.72197    0.79332   1.00
H1       0.70182    0.62618    0.77856   1.00
C5       0.93436    0.69379    0.80128   1.00
C5       0.91147    0.64080    0.78634   1.00
H1       0.78909    0.81469    0.81528   1.00
H1       0.66075    0.53344    0.75664   1.00
H1       0.96359    0.80159    0.82567   1.00
H1       0.84476    0.53428    0.76046   1.00
C6       0.99982    0.71624    0.81293   1.00
C6       0.95759    0.61454    0.77911   1.00
H2       0.99123    0.72205    0.82889   1.00
H2       0.95381    0.60914    0.76266   1.00
H2       1.01290    0.67617    0.81359   1.00
H2       1.01112    0.65232    0.78109   1.00
C6       1.06201    0.78255    0.80417   1.00
C6       0.94285    0.54660    0.78976   1.00
H2       1.04631    0.81989    0.80067   1.00
H2       0.88781    0.51168    0.79044   1.00
C6       1.12809    0.81891    0.81744   1.00
C6       0.97642    0.50684    0.78043   1.00
H2       1.07537    0.76958    0.78956   1.00
H2       0.95926    0.55856    0.80554   1.00
C6       1.11619    0.84880    0.83718   1.00
C6       0.94743    0.47834    0.75907   1.00
C6       1.15489    0.77000    0.82298   1.00
C6       1.05498    0.55214    0.77907   1.00
C6       1.18442    0.87916    0.80509   1.00
C6       0.96006    0.44522    0.79437   1.00
H2       1.09617    0.88272    0.83380   1.00
H2       0.89190    0.44700    0.75946   1.00
H2       1.08011    0.80874    0.84720   1.00
H2       0.96076    0.51918    0.74815   1.00
H2       1.16360    0.87806    0.84563   1.00
H2       0.96760    0.44677    0.75330   1.00
H2       1.20352    0.79703    0.83098   1.00
H2       1.07827    0.52265    0.77392   1.00
H2       1.11912    0.72909    0.83286   1.00
H2       1.06939    0.59379    0.76835   1.00
H2       1.16234    0.74713    0.80937   1.00
H2       1.07656    0.57402    0.79384   1.00
H2       1.16831    0.91568    0.80097   1.00
H2       0.90507    0.41113    0.79568   1.00
H2       1.23157    0.90650    0.81380   1.00
H2       0.98210    0.41551    0.78840   1.00
H2       1.19612    0.86114    0.79114   1.00
H2       0.98047    0.46215    0.80960   1.00
C4       0.29154    0.12088    0.79282   1.00
C4       0.34931    0.14878    0.77962   1.00
C3       0.23037    0.12104    0.78788   1.00
C3       0.34747    0.17220    0.75969   1.00
C3       0.29418    0.09158    0.81178   1.00
C3       0.41168    0.15374    0.78633   1.00
C2       0.17350    0.06148    0.81907   1.00
C2       0.46706    0.20828    0.75326   1.00
C3       0.17297    0.09198    0.80052   1.00
C3       0.40457    0.20137    0.74693   1.00
C3       0.23448    0.06218    0.82417   1.00
C3       0.46877    0.18411    0.77290   1.00
H1       0.22546    0.14289    0.77499   1.00
H1       0.30438    0.16832    0.75363   1.00
C5       0.35534    0.09248    0.81797   1.00
C5       0.41581    0.12840    0.80590   1.00
H1       0.13030    0.09350    0.79605   1.00
H1       0.40001    0.21753    0.73276   1.00
H1       0.23423    0.04045    0.83769   1.00
H1       0.51413    0.18896    0.77718   1.00
C6       0.35507    0.05494    0.83701   1.00
C6       0.48394    0.14054    0.81365   1.00
H2       0.30860    0.00534    0.83735   1.00
H2       0.52289    0.19295    0.81034   1.00
H2       0.39413    0.04045    0.83653   1.00
H2       0.48539    0.13986    0.83012   1.00
C6       0.36401    0.09646    0.85692   1.00
C6       0.50387    0.08821    0.80513   1.00
H2       0.33174    0.11965    0.85619   1.00
H2       0.49310    0.08113    0.78887   1.00
C6       0.34945    0.05747    0.87757   1.00
C6       0.57903    0.10452    0.80840   1.00
H2       0.41629    0.13923    0.85721   1.00
H2       0.46969    0.03866    0.81198   1.00
C6       0.27310    0.00256    0.87978   1.00
C6       0.63051    0.16874    0.79638   1.00
C6       0.39370    0.02340    0.88012   1.00
C6       0.59886    0.11460    0.83115   1.00
C6       0.36737    0.10950    0.89510   1.00
C6       0.58541    0.04339    0.80046   1.00
H2       0.24040    0.02481    0.87772   1.00
H2       0.61726    0.16369    0.78030   1.00
H2       0.25802    -0.03804   0.86865   1.00
H2       0.63176    0.21452    0.80204   1.00
H2       0.26258    -0.02103   0.89476   1.00
H2       0.68214    0.17694    0.79762   1.00
H2       0.38677    0.00055    0.89513   1.00
H2       0.64953    0.12108    0.83340   1.00
H2       0.37982    -0.01701   0.86897   1.00
H2       0.59974    0.15987    0.83716   1.00
H2       0.44765    0.06072    0.87821   1.00
H2       0.56257    0.07067    0.84003   1.00
H2       0.33693    0.13456    0.89414   1.00
H2       0.57262    0.03451    0.78436   1.00
H2       0.35761    0.08456    0.90988   1.00
H2       0.63726    0.05258    0.80229   1.00
H2       0.42109    0.14889    0.89462   1.00
H2       0.55123    -0.00332   0.80866   1.00
C4       0.87860    0.16951    0.79260   1.00
C4       0.85090    0.19930    0.77929   1.00
C3       0.86967    0.10337    0.78923   1.00
C3       0.81861    0.16825    0.76061   1.00
C3       0.91675    0.20649    0.81003   1.00
C3       0.85529    0.26261    0.78459   1.00
C2       0.93742    0.11056    0.81895   1.00
C2       0.79190    0.25781    0.75283   1.00
C3       0.89841    0.07482    0.80193   1.00
C3       0.78968    0.19633    0.74781   1.00
C3       0.94549    0.17577    0.82251   1.00
C3       0.82484    0.28931    0.77120   1.00
H1       0.84137    0.07316    0.77755   1.00
H1       0.81551    0.12442    0.75551   1.00
C5       0.92505    0.27210    0.81468   1.00
C5       0.88970    0.29771    0.80278   1.00
H1       0.89032    0.02701    0.79863   1.00
H1       0.76687    0.17130    0.73460   1.00
H1       0.97333    0.20068    0.83496   1.00
H1       0.82651    0.33397    0.77452   1.00
C6       0.97151    0.31371    0.83190   1.00
C6       0.88763    0.36077    0.80929   1.00
H2       1.01824    0.31112    0.83121   1.00
H2       0.83598    0.35176    0.80735   1.00
H2       0.99085    0.36794    0.82980   1.00
H2       0.89479    0.36903    0.82556   1.00
C6       0.93672    0.29193    0.85325   1.00
C6       0.94130    0.42707    0.79803   1.00
H2       0.90859    0.23632    0.85437   1.00
H2       0.94128    0.41632    0.78186   1.00
C6       0.98372    0.32052    0.87237   1.00
C6       0.93395    0.49198    0.80011   1.00
H2       0.89802    0.30719    0.85413   1.00
H2       0.99185    0.43974    0.80349   1.00
C6       1.03335    0.29221    0.87404   1.00
C6       0.86805    0.48192    0.78974   1.00
C6       1.02526    0.39948    0.87228   1.00
C6       0.93433    0.51186    0.82261   1.00
C6       0.93805    0.29753    0.89161   1.00
C6       0.99552    0.55245    0.78937   1.00
H2       1.00565    0.23652    0.87381   1.00
H2       0.86569    0.46674    0.77390   1.00
H2       1.06984    0.30995    0.86160   1.00
H2       0.82251    0.44284    0.79735   1.00
H2       1.06254    0.30862    0.88812   1.00
H2       0.86575    0.52891    0.79003   1.00
H2       1.05409    0.41899    0.88633   1.00
H2       0.93411    0.55981    0.82386   1.00
H2       1.06167    0.41829    0.85979   1.00
H2       0.88942    0.47300    0.83056   1.00
H2       0.99159    0.42071    0.87068   1.00
H2       0.97955    0.51785    0.83038   1.00
H2       0.90808    0.24199    0.89253   1.00
H2       0.99721    0.54130    0.77333   1.00
H2       0.96866    0.31591    0.90541   1.00
H2       0.99244    0.59898    0.79029   1.00
H2       0.90274    0.31713    0.89152   1.00
H2       1.04361    0.56299    0.79629   1.00
C4       0.03417    0.50131    0.37084   1.00
C4       -0.02332   0.47618    0.38409   1.00
C3       0.04167    0.45904    0.35627   1.00
C3       -0.08057   0.40917    0.38229   1.00
C3       0.08672    0.57124    0.37200   1.00
C3       -0.02452   0.51903    0.39983   1.00
C2       0.14875    0.55286    0.34334   1.00
C2       -0.13812   0.42413    0.41152   1.00
C3       0.09698    0.48398    0.34285   1.00
C3       -0.13612   0.38370    0.39562   1.00
C3       0.14202    0.59472    0.35799   1.00
C3       -0.08188   0.49103    0.41316   1.00
H1       0.00756    0.40837    0.35499   1.00
H1       -0.08437   0.37657    0.37109   1.00
C5       0.08343    0.61558    0.38692   1.00
C5       0.03032    0.58793    0.40187   1.00
H1       0.09928    0.45093    0.33264   1.00
H1       -0.17571   0.33484    0.39356   1.00
H1       0.18013    0.64421    0.35825   1.00
H1       -0.08438   0.51976    0.42462   1.00
C6       0.13548    0.69098    0.38657   1.00
C6       0.03186    0.63023    0.41986   1.00
H2       0.14298    0.70913    0.37096   1.00
H2       0.01842    0.59904    0.43352   1.00
H2       0.11589    0.72114    0.39361   1.00
H2       0.08344    0.67034    0.42335   1.00
C6       0.20464    0.70846    0.39694   1.00
C6       -0.01451   0.66281    0.41699   1.00
H2       0.21979    0.67175    0.39212   1.00
H2       -0.06364   0.62489    0.41063   1.00
C6       0.26690    0.78175    0.39357   1.00
C6       -0.02891   0.69466    0.43611   1.00
H2       0.19543    0.70029    0.41324   1.00
H2       0.00900    0.70239    0.40540   1.00
C6       0.29043    0.79373    0.37110   1.00
C6       -0.07208   0.63952    0.45212   1.00
C6       0.25055    0.83761    0.40025   1.00
C6       0.03804    0.74993    0.44609   1.00
C6       0.32751    0.78953    0.40661   1.00
C6       -0.07032   0.72903    0.42939   1.00
H2       0.30131    0.75444    0.36582   1.00
H2       -0.11924   0.59913    0.44546   1.00
H2       0.25169    0.79316    0.36119   1.00
H2       -0.04426   0.61611    0.45843   1.00
H2       0.33665    0.84308    0.36917   1.00
H2       -0.08584   0.66148    0.46473   1.00
H2       0.29568    0.88823    0.39921   1.00
H2       0.02745    0.77519    0.45850   1.00
H2       0.21133    0.83743    0.39062   1.00
H2       0.06700    0.72758    0.45234   1.00
H2       0.23249    0.82952    0.41590   1.00
H2       0.07005    0.78865    0.43503   1.00
H2       0.34161    0.75162    0.40234   1.00
H2       -0.11857   0.69195    0.42242   1.00
H2       0.37247    0.83987    0.40466   1.00
H2       -0.08206   0.75168    0.44228   1.00
H2       0.31450    0.78298    0.42271   1.00
H2       -0.04189   0.76946    0.41837   1.00
C4       0.46740    0.96569    0.37089   1.00
C4       0.49973    1.02309    0.38418   1.00
C3       0.42002    0.95980    0.35569   1.00
C3       0.49251    1.08172    0.38183   1.00
C3       0.48234    0.91157    0.37267   1.00
C3       0.54114    1.02278    0.40051   1.00
C2       0.40453    0.85122    0.34334   1.00
C2       0.56235    1.13780    0.41164   1.00
C3       0.38973    0.90454    0.34225   1.00
C3       0.52253    1.13723    0.39518   1.00
C3       0.45071    0.85636    0.35862   1.00
C3       0.57051    1.08017    0.41383   1.00
H1       0.40520    0.99512    0.35394   1.00
H1       0.46572    1.08658    0.37021   1.00
C5       0.52743    0.91325    0.38822   1.00
C5       0.55263    0.96645    0.40313   1.00
H1       0.35618    0.90344    0.33157   1.00
H1       0.51515    1.17786    0.39270   1.00
H1       0.46042    0.81716    0.35931   1.00
H1       0.59989    1.08162    0.42570   1.00
C6       0.54842    0.85940    0.38856   1.00
C6       0.59046    0.96349    0.42169   1.00
H2       0.56039    0.85129    0.37317   1.00
H2       0.57197    0.97790    0.43499   1.00
H2       0.59710    0.87755    0.39615   1.00
H2       0.57689    0.91143    0.42539   1.00
C6       0.49399    0.79096    0.39870   1.00
C6       0.66991    1.00777    0.41960   1.00
H2       0.44314    0.77743    0.39326   1.00
H2       0.68346    1.05732    0.41305   1.00
C6       0.50286    0.72716    0.39593   1.00
C6       0.71357    1.02083    0.43925   1.00
H2       0.49346    0.80040    0.41493   1.00
H2       0.68613    0.98318    0.40841   1.00
C6       0.49327    0.70351    0.37349   1.00
C6       0.70159    1.06531    0.45476   1.00
C6       0.57349    0.74119    0.40350   1.00
C6       0.69847    0.95317    0.44953   1.00
C6       0.44732    0.66750    0.40865   1.00
C6       0.79017    1.06016    0.43330   1.00
H2       0.44429    0.69425    0.36758   1.00
H2       0.71075    1.11303    0.44787   1.00
H2       0.53327    0.74149    0.36384   1.00
H2       0.64960    1.03891    0.46056   1.00
H2       0.49484    0.65634    0.37193   1.00
H2       0.73565    1.07807    0.46777   1.00
H2       0.57731    0.69504    0.40285   1.00
H2       0.73257    0.96270    0.46236   1.00
H2       0.61433    0.77962    0.39414   1.00
H2       0.64637    0.92562    0.45526   1.00
H2       0.58213    0.75930    0.41914   1.00
H2       0.70514    0.92028    0.43880   1.00
H2       0.39629    0.65503    0.40376   1.00
H2       0.80372    1.10882    0.42615   1.00
H2       0.45113    0.62152    0.40710   1.00
H2       0.82283    1.07091    0.44657   1.00
H2       0.45226    0.68059    0.42473   1.00
H2       0.80216    1.03071    0.42266   1.00
C4       0.49831    0.53261    0.37088   1.00
C4       0.52339    0.50028    0.38417   1.00
C3       0.53984    0.58009    0.35571   1.00
C3       0.58928    0.50760    0.38184   1.00
C3       0.42921    0.51757    0.37264   1.00
C3       0.48163    0.45877    0.40048   1.00
C2       0.44672    0.59549    0.34334   1.00
C2       0.57547    0.43765    0.41163   1.00
C3       0.51487    0.61037    0.34228   1.00
C3       0.61478    0.47758    0.39519   1.00
C3       0.40565    0.54921    0.35859   1.00
C3       0.50964    0.42940    0.41380   1.00
H1       0.59000    0.59496    0.35397   1.00
H1       0.62097    0.53446    0.37024   1.00
C5       0.38576    0.47238    0.38817   1.00
C5       0.41376    0.44718    0.40309   1.00
H1       0.54734    0.64399    0.33161   1.00
H1       0.66282    0.48503    0.39273   1.00
H1       0.35671    0.53944    0.35927   1.00
H1       0.48168    0.39995    0.42566   1.00
C6       0.31090    0.45130    0.38849   1.00
C6       0.37291    0.40924    0.42163   1.00
H2       0.29090    0.43938    0.37308   1.00
H2       0.40575    0.42770    0.43494   1.00
H2       0.28039    0.40258    0.39606   1.00
H2       0.33436    0.42273    0.42531   1.00
C6       0.29677    0.50564    0.39864   1.00
C6       0.33783    0.32980    0.41950   1.00
H2       0.33406    0.55652    0.39322   1.00
H2       0.37391    0.31634    0.41296   1.00
C6       0.22407    0.49668    0.39584   1.00
C6       0.30719    0.28605    0.43913   1.00
H2       0.30666    0.50611    0.41487   1.00
H2       0.29707    0.31359    0.40829   1.00
C6       0.21009    0.50634    0.37340   1.00
C6       0.36359    0.29802    0.45467   1.00
C6       0.16749    0.42599    0.40338   1.00
C6       0.25452    0.30101    0.44940   1.00
C6       0.21981    0.55213    0.40857   1.00
C6       0.27002    0.20947    0.43315   1.00
H2       0.24979    0.55537    0.36752   1.00
H2       0.40222    0.28895    0.44778   1.00
H2       0.20816    0.46641    0.36374   1.00
H2       0.38910    0.34999    0.46048   1.00
H2       0.16133    0.50472    0.37183   1.00
H2       0.34226    0.26390    0.46766   1.00
H2       0.11751    0.42211    0.40272   1.00
H2       0.22993    0.26685    0.46221   1.00
H2       0.16518    0.38522    0.39401   1.00
H2       0.27898    0.35309    0.45515   1.00
H2       0.17692    0.41730    0.41902   1.00
H2       0.21499    0.29435    0.43866   1.00
H2       0.25835    0.60319    0.40371   1.00
H2       0.30520    0.19601    0.42601   1.00
H2       0.16999    0.54825    0.40701   1.00
H2       0.24808    0.17674    0.44641   1.00
H2       0.22790    0.54712    0.42466   1.00
H2       0.22862    0.19748    0.42250   1.00
C4       0.16408    0.29866    0.20435   1.00
C4       0.19286    0.35761    0.21710   1.00
C3       0.09431    0.24663    0.20568   1.00
C3       0.15248    0.37218    0.23052   1.00
C3       0.20594    0.29054    0.18966   1.00
C3       0.26467    0.40438    0.21657   1.00
C2       0.10500    0.18109    0.17793   1.00
C2       0.25144    0.47501    0.24359   1.00
C3       0.06547    0.18977    0.19282   1.00
C3       0.18079    0.42886    0.24345   1.00
C3       0.17451    0.23208    0.17678   1.00
C3       0.29155    0.46129    0.23006   1.00
H1       0.06199    0.24776    0.21617   1.00
H1       0.10089    0.34252    0.23126   1.00
C5       0.27720    0.33978    0.18819   1.00
C5       0.30756    0.39396    0.20275   1.00
H1       0.01476    0.15419    0.19449   1.00
H1       0.14894    0.43637    0.25284   1.00
H1       0.20249    0.22477    0.16606   1.00
H1       0.34241    0.49542    0.23023   1.00
C6       0.31919    0.33438    0.17118   1.00
C6       0.38420    0.43970    0.20387   1.00
H2       0.29031    0.32262    0.15709   1.00
H2       0.39993    0.44699    0.21973   1.00
H2       0.36344    0.38354    0.16767   1.00
H2       0.41077    0.41462    0.19791   1.00
C6       0.34336    0.28177    0.17565   1.00
C6       0.41048    0.50946    0.19265   1.00
H2       0.30108    0.23523    0.18203   1.00
H2       0.37755    0.53043    0.19634   1.00
C6       0.37378    0.26073    0.15757   1.00
C6       0.48602    0.56654    0.19654   1.00
H2       0.38159    0.30293    0.18769   1.00
H2       0.40392    0.49907    0.17638   1.00
C6       0.31922    0.22028    0.14114   1.00
C6       0.49710    0.59220    0.21880   1.00
C6       0.43493    0.32359    0.14765   1.00
C6       0.53689    0.54178    0.19146   1.00
C6       0.39972    0.21353    0.16583   1.00
C6       0.50257    0.62819    0.18260   1.00
H2       0.27484    0.17615    0.14773   1.00
H2       0.46116    0.60902    0.22297   1.00
H2       0.30174    0.25185    0.13379   1.00
H2       0.49040    0.55241    0.22939   1.00
H2       0.33964    0.20179    0.12931   1.00
H2       0.54854    0.63513    0.22100   1.00
H2       0.45879    0.30806    0.13604   1.00
H2       0.58950    0.58331    0.19283   1.00
H2       0.41857    0.35623    0.14037   1.00
H2       0.53054    0.50141    0.20178   1.00
H2       0.47349    0.35376    0.15898   1.00
H2       0.52921    0.52210    0.17600   1.00
H2       0.35825    0.16787    0.17282   1.00
H2       0.46846    0.64814    0.18573   1.00
H2       0.42108    0.19706    0.15371   1.00
H2       0.55478    0.66968    0.18487   1.00
H2       0.43943    0.23971    0.17722   1.00
H2       0.49701    0.61362    0.16663   1.00
C4       0.70839    0.87916    0.20715   1.00
C4       0.65274    0.84997    0.22113   1.00
C3       0.70853    0.91631    0.18968   1.00
C3       0.59674    0.86189    0.21982   1.00
C3       0.76649    0.87134    0.21050   1.00
C3       0.65227    0.80717    0.23716   1.00
C2       0.82231    0.94108    0.17940   1.00
C2       0.53856    0.78828    0.24880   1.00
C3       0.76382    0.94665    0.17627   1.00
C3       0.54118    0.83178    0.23315   1.00
C3       0.82191    0.90335    0.19654   1.00
C3       0.59454    0.77719    0.25034   1.00
H1       0.66817    0.92213    0.18595   1.00
H1       0.59455    0.89345    0.20926   1.00
C5       0.76808    0.83208    0.22735   1.00
C5       0.70855    0.79559    0.23976   1.00
H1       0.76089    0.97300    0.16399   1.00
H1       0.50226    0.84221    0.23135   1.00
H1       0.86430    0.89933    0.19849   1.00
H1       0.59212    0.74610    0.26183   1.00
C6       0.83269    0.83030    0.23194   1.00
C6       0.70410    0.74453    0.25540   1.00
H2       0.87629    0.88165    0.23054   1.00
H2       0.65383    0.69904    0.25455   1.00
H2       0.83557    0.81915    0.24782   1.00
H2       0.73712    0.72414    0.25158   1.00
C6       0.84133    0.77803    0.21848   1.00
C6       0.72103    0.77433    0.27745   1.00
H2       0.82875    0.78226    0.20274   1.00
H2       0.69548    0.80360    0.28037   1.00
C6       0.91255    0.78240    0.21864   1.00
C6       0.70354    0.72277    0.29536   1.00
H2       0.80290    0.72680    0.22327   1.00
H2       0.77552    0.81146    0.27806   1.00
C6       0.96856    0.84973    0.20896   1.00
C6       0.62548    0.67480    0.29762   1.00
C6       0.93451    0.77599    0.24040   1.00
C6       0.73838    0.67928    0.29269   1.00
C6       0.90752    0.72248    0.20584   1.00
C6       0.73012    0.76376    0.31540   1.00
H2       0.95407    0.85633    0.19369   1.00
H2       0.59925    0.70398    0.29920   1.00
H2       0.97777    0.89393    0.21793   1.00
H2       0.60401    0.64138    0.28453   1.00
H2       1.01689    0.85022    0.20786   1.00
H2       0.61360    0.64231    0.31097   1.00
H2       0.98179    0.77418    0.24020   1.00
H2       0.72988    0.64703    0.30592   1.00
H2       0.94334    0.81948    0.24969   1.00
H2       0.71803    0.64590    0.27952   1.00
H2       0.89529    0.72967    0.24772   1.00
H2       0.79326    0.71185    0.29063   1.00
H2       0.89282    0.72502    0.19023   1.00
H2       0.70649    0.79489    0.31813   1.00
H2       0.95626    0.72360    0.20537   1.00
H2       0.71868    0.72987    0.32841   1.00
H2       0.86969    0.67338    0.21216   1.00
H2       0.78527    0.79765    0.31490   1.00
C4       0.12157    0.83081    0.20746   1.00
C4       0.15130    0.80485    0.22142   1.00
C3       0.07321    0.78898    0.19251   1.00
C3       0.12957    0.73408    0.22282   1.00
C3       0.14038    0.90118    0.20824   1.00
C3       0.20481    0.85067    0.23462   1.00
C2       0.05888    0.88246    0.17987   1.00
C2       0.21367    0.75268    0.24895   1.00
C3       0.04251    0.81381    0.17918   1.00
C3       0.15994    0.70871    0.23608   1.00
C3       0.10764    0.92438    0.19447   1.00
C3       0.23465    0.82282    0.24782   1.00
H1       0.05900    0.73905    0.19060   1.00
H1       0.09039    0.69823    0.21441   1.00
C5       0.19089    0.94643    0.22239   1.00
C5       0.22692    0.92210    0.23450   1.00
H1       0.00781    0.78097    0.16880   1.00
H1       0.14211    0.65715    0.23631   1.00
H1       0.11933    0.97396    0.19466   1.00
H1       0.27313    0.85383    0.25733   1.00
C6       0.20497    1.01892    0.22452   1.00
C6       0.28832    0.97088    0.24696   1.00
H2       0.15667    1.01856    0.22471   1.00
H2       0.32825    0.95780    0.24515   1.00
H2       0.22554    1.03991    0.23938   1.00
H2       0.31282    1.02228    0.24081   1.00
C6       0.25430    1.06812    0.20782   1.00
C6       0.27109    0.97326    0.26987   1.00
H2       0.23964    1.04309    0.19302   1.00
H2       0.23789    0.92140    0.27542   1.00
C6       0.26056    1.13990    0.20572   1.00
C6       0.33226    1.00979    0.28500   1.00
H2       0.30504    1.07555    0.21079   1.00
H2       0.24049    0.99819    0.27079   1.00
C6       0.19292    1.13428    0.19829   1.00
C6       0.37223    0.97097    0.28708   1.00
C6       0.28211    1.17986    0.22598   1.00
C6       0.38198    1.08435    0.27851   1.00
C6       0.31623    1.18175    0.18968   1.00
C6       0.30362    1.01138    0.30627   1.00
H2       0.17572    1.10534    0.18417   1.00
H2       0.33832    0.91780    0.29132   1.00
H2       0.15243    1.10901    0.20946   1.00
H2       0.39732    0.97152    0.27293   1.00
H2       0.19914    1.18459    0.19553   1.00
H2       0.41173    0.99411    0.29867   1.00
H2       0.29106    1.23157    0.22401   1.00
H2       0.42168    1.11081    0.28989   1.00
H2       0.24248    1.15498    0.23744   1.00
H2       0.40716    1.08601    0.26426   1.00
H2       0.32887    1.18332    0.23177   1.00
H2       0.35485    1.11244    0.27652   1.00
H2       0.30310    1.15605    0.17498   1.00
H2       0.26865    0.95981    0.31166   1.00
H2       0.32218    1.23227    0.18757   1.00
H2       0.34448    1.03606    0.31742   1.00
H2       0.36561    1.18868    0.19426   1.00
H2       0.27596    1.03936    0.30588   1.00
C4       0.96594    0.49902    0.62920   1.00
C4       1.02476    0.52821    0.61641   1.00
C3       0.92096    0.42729    0.63062   1.00
C3       1.04668    0.48771    0.60582   1.00
C3       0.95065    0.54247    0.64112   1.00
C3       1.06384    0.60059    0.61397   1.00
C2       0.84883    0.43978    0.65581   1.00
C2       1.14176    0.58695    0.58976   1.00
C3       0.86437    0.39843    0.64358   1.00
C3       1.10316    0.51603    0.59281   1.00
C3       0.89274    0.51103    0.65421   1.00
C3       1.12080    0.62738    0.60050   1.00
H1       0.92726    0.39334    0.62214   1.00
H1       1.02282    0.43616    0.60731   1.00
C5       0.99242    0.61518    0.63969   1.00
C5       1.04597    0.64418    0.62490   1.00
H1       0.83407    0.34631    0.64397   1.00
H1       1.11617    0.48403    0.58555   1.00
H1       0.88049    0.54020    0.66302   1.00
H1       1.14956    0.67855    0.59825   1.00
C6       0.97997    0.66027    0.65394   1.00
C6       1.08325    0.71998    0.62053   1.00
H2       0.97145    0.63902    0.66920   1.00
H2       1.08901    0.72782    0.60418   1.00
H2       1.02567    0.70956    0.65607   1.00
H2       1.05237    0.74285    0.62430   1.00
C6       0.92031    0.67171    0.64690   1.00
C6       1.15346    0.75994    0.63177   1.00
H2       0.87717    0.62325    0.64191   1.00
H2       1.18086    0.73176    0.63050   1.00
C6       0.89289    0.70442    0.66250   1.00
C6       1.20307    0.83520    0.62500   1.00
H2       0.93740    0.70383    0.63337   1.00
H2       1.14301    0.76008    0.64794   1.00
C6       0.85759    0.65661    0.68084   1.00
C6       1.22926    0.83870    0.60304   1.00
C6       0.95052    0.77414    0.67030   1.00
C6       1.16889    0.87963    0.62653   1.00
C6       0.83883    0.71652    0.65175   1.00
C6       1.26603    0.86639    0.63928   1.00
H2       0.81733    0.60653    0.67581   1.00
H2       1.25271    0.80694    0.60138   1.00
H2       0.89373    0.64926    0.68984   1.00
H2       1.18807    0.82141    0.59203   1.00
H2       0.83454    0.67773    0.69089   1.00
H2       1.26737    0.89081    0.59897   1.00
H2       0.93011    0.79872    0.68002   1.00
H2       1.20531    0.93296    0.62317   1.00
H2       0.98764    0.76793    0.67920   1.00
H2       1.12701    0.86269    0.61574   1.00
H2       0.97716    0.80830    0.65766   1.00
H2       1.14871    0.87692    0.64174   1.00
H2       0.79652    0.66863    0.64613   1.00
H2       1.29251    0.83726    0.63862   1.00
H2       0.81777    0.73894    0.66210   1.00
H2       1.30248    0.91894    0.63507   1.00
H2       0.86103    0.75107    0.63889   1.00
H2       1.25097    0.86664    0.65500   1.00
C4       0.53281    0.03419    0.62916   1.00
C4       0.50305    -0.02466   0.61638   1.00
C3       0.50809    0.08097    0.62988   1.00
C3       0.44227    -0.04474   0.60508   1.00
C3       0.58957    0.04766    0.64177   1.00
C3       0.53452    -0.06568   0.61468   1.00
C2       0.59081    0.15142    0.65572   1.00
C2       0.44466    -0.14177   0.58977   1.00
C3       0.53589    0.13763    0.64282   1.00
C3       0.41406    -0.10127   0.59209   1.00
C3       0.61617    0.10571    0.65481   1.00
C3       0.50438    -0.12263   0.60121   1.00
H1       0.46938    0.07599    0.62089   1.00
H1       0.41584    -0.01942   0.60601   1.00
C5       0.61851    0.00400    0.64108   1.00
C5       0.59417    -0.04969   0.62634   1.00
H1       0.51557    0.16927    0.64268   1.00
H1       0.37029    -0.11290   0.58430   1.00
H1       0.65622    0.11671    0.66411   1.00
H1       0.52553    -0.15274   0.59948   1.00
C6       0.67373    0.01464    0.65604   1.00
C6       0.63104    -0.08908   0.62278   1.00
H2       0.65980    0.02386    0.67104   1.00
H2       0.63476    -0.09512   0.60651   1.00
H2       0.67530    -0.03201   0.65853   1.00
H2       0.68444    -0.05961   0.62708   1.00
C6       0.74646    0.07270    0.64957   1.00
C6       0.59747    -0.15937   0.63408   1.00
H2       0.74344    0.11678    0.64420   1.00
H2       0.54211    -0.18522   0.63223   1.00
C6       0.80462    0.09849    0.66580   1.00
C6       0.62155    -0.21085   0.62803   1.00
H2       0.76213    0.05468    0.63638   1.00
H2       0.60637    -0.14903   0.65032   1.00
C6       0.79156    0.13499    0.68370   1.00
C6       0.60087    -0.23680   0.60596   1.00
C6       0.81342    0.03943    0.67418   1.00
C6       0.69971    -0.17894   0.63041   1.00
C6       0.87274    0.15103    0.65561   1.00
C6       0.58642    -0.27368   0.64231   1.00
H2       0.78401    0.17630    0.67825   1.00
H2       0.54607    -0.25865   0.60369   1.00
H2       0.74654    0.09986    0.69234   1.00
H2       0.62711    -0.19581   0.59500   1.00
H2       0.83456    0.15689    0.69420   1.00
H2       0.61365    -0.27613   0.60236   1.00
H2       0.85717    0.05861    0.68438   1.00
H2       0.71532    -0.21665   0.62756   1.00
H2       0.76854    0.00329    0.68272   1.00
H2       0.72696    -0.13730   0.61969   1.00
H2       0.82127    0.01197    0.66185   1.00
H2       0.71582    -0.15896   0.64571   1.00
H2       0.86950    0.19426    0.64961   1.00
H2       0.53099    -0.29860   0.64105   1.00
H2       0.91495    0.17091    0.66640   1.00
H2       0.60132    -0.31140   0.63858   1.00
H2       0.88550    0.12790    0.64308   1.00
H2       0.60016    -0.25883   0.65811   1.00
C4       0.50136    0.46718    0.62916   1.00
C4       0.47226    0.49694    0.61638   1.00
C3       0.57287    0.49198    0.62991   1.00
C3       0.51296    0.55778    0.60511   1.00
C3       0.45805    0.41034    0.64175   1.00
C3       0.39978    0.46540    0.61466   1.00
C2       0.56058    0.40918    0.65572   1.00
C2       0.41355    0.55533    0.58977   1.00
C3       0.60173    0.46418    0.64284   1.00
C3       0.48464    0.58599    0.59212   1.00
C3       0.48951    0.38374    0.65479   1.00
C3       0.37297    0.49554    0.60118   1.00
H1       0.60661    0.53075    0.62093   1.00
H1       0.56470    0.58426    0.60606   1.00
C5       0.38545    0.38132    0.64103   1.00
C5       0.35612    0.40568    0.62628   1.00
H1       0.65369    0.48456    0.64273   1.00
H1       0.51677    0.62981    0.58435   1.00
H1       0.46045    0.34365    0.66407   1.00
H1       0.32171    0.47433    0.59944   1.00
C6       0.34084    0.32601    0.65596   1.00
C6       0.27987    0.36874    0.62269   1.00
H2       0.36392    0.33990    0.67097   1.00
H2       0.27019    0.36508    0.60642   1.00
H2       0.29259    0.32437    0.65844   1.00
H2       0.25598    0.31532    0.62697   1.00
C6       0.32629    0.25334    0.64947   1.00
C6       0.24302    0.40219    0.63400   1.00
H2       0.37345    0.25645    0.64411   1.00
H2       0.27248    0.45756    0.63217   1.00
C6       0.29391    0.19511    0.66568   1.00
C6       0.16747    0.37804    0.62792   1.00
H2       0.29266    0.23769    0.63627   1.00
H2       0.24440    0.39322    0.65023   1.00
C6       0.34341    0.20815    0.68359   1.00
C6       0.16227    0.39880    0.60585   1.00
C6       0.22598    0.18618    0.67404   1.00
C6       0.12129    0.29987    0.63027   1.00
C6       0.27846    0.12706    0.65546   1.00
C6       0.13964    0.41305    0.64220   1.00
H2       0.39231    0.21579    0.67816   1.00
H2       0.19518    0.45362    0.60360   1.00
H2       0.35320    0.25311    0.69225   1.00
H2       0.17711    0.37264    0.59489   1.00
H2       0.32231    0.16511    0.69408   1.00
H2       0.11016    0.38597    0.60223   1.00
H2       0.20140    0.14239    0.68421   1.00
H2       0.06796    0.28420    0.62740   1.00
H2       0.23462    0.23100    0.68259   1.00
H2       0.13578    0.27270    0.61954   1.00
H2       0.19071    0.17834    0.66169   1.00
H2       0.12511    0.28371    0.64556   1.00
H2       0.32499    0.13039    0.64947   1.00
H2       0.17010    0.46849    0.64096   1.00
H2       0.25613    0.08480    0.66624   1.00
H2       0.08702    0.39810    0.63845   1.00
H2       0.24261    0.11431    0.64292   1.00
H2       0.14069    0.39925    0.65800   1.00
C4       0.50399    0.04371    0.12552   1.00
C4       0.47565    -0.01240   0.11169   1.00
C3       0.56958    0.06902    0.13445   1.00
C3       0.51362    -0.04242   0.10420   1.00
C3       0.46595    0.07632    0.13081   1.00
C3       0.40681    -0.04013   0.10491   1.00
C2       0.56276    0.15930    0.15271   1.00
C2       0.41735    -0.12800   0.08451   1.00
C3       0.59832    0.12524    0.14755   1.00
C3       0.48537    -0.09867   0.09110   1.00
C3       0.49721    0.13366    0.14412   1.00
C3       0.37984    -0.09767   0.09166   1.00
H1       0.59866    0.04712    0.13193   1.00
H1       0.56344    -0.02412   0.10781   1.00
C5       0.39849    0.05135    0.12297   1.00
C5       0.36697    -0.01027   0.11126   1.00
H1       0.64596    0.14117    0.15343   1.00
H1       0.51536    -0.11814   0.08630   1.00
H1       0.47196    0.15848    0.14813   1.00
H1       0.33096    -0.11911   0.08662   1.00
C6       0.36179    0.09067    0.12696   1.00
C6       0.29212    -0.04451   0.10573   1.00
H2       0.39730    0.14488    0.12476   1.00
H2       0.26897    -0.09928   0.10810   1.00
H2       0.32367    0.08076    0.11541   1.00
H2       0.26365    -0.03156   0.11635   1.00
C6       0.32710    0.07587    0.14836   1.00
C6       0.27937    -0.02754   0.08367   1.00
H2       0.36213    0.07600    0.15980   1.00
H2       0.31506    -0.03089   0.07322   1.00
C6       0.30094    0.12427    0.15594   1.00
C6       0.20590    -0.07141   0.07470   1.00
H2       0.28403    0.02373    0.14822   1.00
H2       0.29267    0.02595    0.08340   1.00
C6       0.36065    0.19771    0.15971   1.00
C6       0.18708    -0.14671   0.07150   1.00
C6       0.25000    0.12679    0.14077   1.00
C6       0.15152    -0.06912   0.08841   1.00
C6       0.26331    0.09655    0.17644   1.00
C6       0.20359    -0.04186   0.05365   1.00
H2       0.39813    0.19758    0.17012   1.00
H2       0.22512    -0.15002   0.06215   1.00
H2       0.38685    0.22192    0.14566   1.00
H2       0.18362    -0.17195   0.08587   1.00
H2       0.34236    0.22981    0.16631   1.00
H2       0.13780    -0.17573   0.06396   1.00
H2       0.22839    0.15672    0.14685   1.00
H2       0.10123    -0.09577   0.08133   1.00
H2       0.27513    0.15028    0.12651   1.00
H2       0.14775    -0.09358   0.10297   1.00
H2       0.20816    0.07556    0.13753   1.00
H2       0.16434    -0.01657   0.09126   1.00
H2       0.29732    0.09442    0.18779   1.00
H2       0.24065    -0.04297   0.04329   1.00
H2       0.24444    0.12899    0.18243   1.00
H2       0.15329    -0.07115   0.04670   1.00
H2       0.21967    0.04526    0.17469   1.00
H2       0.21511    0.01090    0.05496   1.00
C4       0.96509    0.46817    0.12890   1.00
C4       1.02218    0.50034    0.11549   1.00
C3       0.96444    0.42999    0.14616   1.00
C3       1.08511    0.50266    0.11956   1.00
C3       0.90590    0.47377    0.12512   1.00
C3       1.01710    0.53173    0.09726   1.00
C2       0.85099    0.40590    0.15658   1.00
C2       1.13657    0.56244    0.08790   1.00
C3       0.90934    0.40005    0.15966   1.00
C3       1.14051    0.53243    0.10616   1.00
C3       0.85101    0.44285    0.13929   1.00
C3       1.07457    0.56117    0.08397   1.00
H1       1.00370    0.42193    0.14947   1.00
H1       1.09329    0.48341    0.13251   1.00
C5       0.90241    0.50913    0.10752   1.00
C5       0.95606    0.53353    0.09276   1.00
H1       0.91213    0.37341    0.17187   1.00
H1       1.18440    0.53220    0.10994   1.00
H1       0.80825    0.44612    0.13720   1.00
H1       1.07274    0.58356    0.07080   1.00
C6       0.84266    0.52089    0.10486   1.00
C6       0.94873    0.56038    0.07244   1.00
H2       0.83188    0.53694    0.11930   1.00
H2       0.96694    0.54005    0.06054   1.00
H2       0.85582    0.56499    0.09535   1.00
H2       0.89552    0.53934    0.06823   1.00
C6       0.77772    0.45753    0.09593   1.00
C6       0.98513    0.64017    0.07160   1.00
H2       0.76982    0.41122    0.10353   1.00
H2       1.03557    0.66199    0.07856   1.00
C6       0.70889    0.45807    0.09673   1.00
C6       0.99405    0.67412    0.05028   1.00
H2       0.78844    0.45182    0.08012   1.00
H2       0.95652    0.65618    0.08128   1.00
C6       0.68419    0.45505    0.11885   1.00
C6       1.04334    0.66298    0.03658   1.00
C6       0.71481    0.52175    0.08604   1.00
C6       0.92480    0.64690    0.03927   1.00
C6       0.65350    0.39385    0.08550   1.00
C6       1.02543    0.75216    0.05328   1.00
H2       0.68056    0.41122    0.12692   1.00
H2       1.09239    0.68067    0.04407   1.00
H2       0.71878    0.50081    0.12730   1.00
H2       1.02243    0.60935    0.03282   1.00
H2       0.63397    0.45067    0.11920   1.00
H2       1.05293    0.69075    0.02231   1.00
H2       0.66542    0.51921    0.08541   1.00
H2       0.93095    0.67433    0.02510   1.00
H2       0.74978    0.56822    0.09417   1.00
H2       0.90267    0.59303    0.03554   1.00
H2       0.73350    0.52587    0.07056   1.00
H2       0.88866    0.65283    0.04877   1.00
H2       0.64677    0.34730    0.09260   1.00
H2       1.07489    0.77411    0.06082   1.00
H2       0.60424    0.39170    0.08577   1.00
H2       1.03308    0.77827    0.03877   1.00
H2       0.66736    0.39373    0.06966   1.00
H2       0.99225    0.76340    0.06251   1.00
C4       0.53263    0.49834    0.12912   1.00
C4       0.50030    0.52342    0.11583   1.00
C3       0.58031    0.53994    0.14425   1.00
C3       0.50783    0.58942    0.11812   1.00
C3       0.51739    0.42917    0.12741   1.00
C3       0.45856    0.48156    0.09957   1.00
C2       0.59552    0.44675    0.15666   1.00
C2       0.43766    0.57550    0.08838   1.00
C3       0.61060    0.51497    0.15768   1.00
C3       0.47780    0.61491    0.10477   1.00
C3       0.54904    0.40561    0.14146   1.00
C3       0.42919    0.50957    0.08625   1.00
H1       0.59533    0.59015    0.14594   1.00
H1       0.53486    0.62119    0.12969   1.00
C5       0.47198    0.38564    0.11193   1.00
C5       0.44676    0.41360    0.09702   1.00
H1       0.64437    0.54750    0.16830   1.00
H1       0.48541    0.66303    0.10720   1.00
H1       0.53913    0.35662    0.14082   1.00
H1       0.39959    0.48155    0.07443   1.00
C6       0.45070    0.31072    0.11167   1.00
C6       0.40857    0.37262    0.07852   1.00
H2       0.43889    0.29088    0.12710   1.00
H2       0.42698    0.40532    0.06518   1.00
H2       0.40189    0.28024    0.10415   1.00
H2       0.42189    0.33393    0.07485   1.00
C6       0.50481    0.29630    0.10151   1.00
C6       0.32917    0.33776    0.08072   1.00
H2       0.55578    0.33354    0.10687   1.00
H2       0.31590    0.37399    0.08724   1.00
C6       0.49568    0.22355    0.10435   1.00
C6       0.28520    0.30701    0.06113   1.00
H2       0.50515    0.30604    0.08527   1.00
H2       0.31297    0.29709    0.09195   1.00
C6       0.50550    0.20974    0.12680   1.00
C6       0.29717    0.36330    0.04555   1.00
C6       0.42485    0.16702    0.09689   1.00
C6       0.29988    0.25410    0.05088   1.00
C6       0.55089    0.21898    0.09159   1.00
C6       0.20868    0.27007    0.06717   1.00
H2       0.55463    0.24941    0.13263   1.00
H2       0.28830    0.40208    0.05242   1.00
H2       0.46571    0.20802    0.13648   1.00
H2       0.34908    0.38863    0.03969   1.00
H2       0.50374    0.16092    0.12840   1.00
H2       0.26291    0.34191    0.03259   1.00
H2       0.42082    0.11698    0.09758   1.00
H2       0.26557    0.22945    0.03810   1.00
H2       0.38422    0.16493    0.10628   1.00
H2       0.35189    0.27839    0.04508   1.00
H2       0.41605    0.17633    0.08124   1.00
H2       0.29320    0.21464    0.06165   1.00
H2       0.60204    0.25747    0.09641   1.00
H2       0.19542    0.30542    0.07430   1.00
H2       0.54689    0.16912    0.09319   1.00
H2       0.17581    0.24807    0.05394   1.00
H2       0.54577    0.22693    0.07551   1.00
H2       0.19669    0.22876    0.07786   1.00
C4       0.71042    0.83686    0.70785   1.00
C4       0.65423    0.80836    0.72164   1.00
C3       0.73837    0.90413    0.69991   1.00
C3       0.62675    0.84741    0.73011   1.00
C3       0.74039    0.79727    0.70155   1.00
C3       0.62377    0.73825    0.72739   1.00
C2       0.82618    0.89575    0.68072   1.00
C2       0.53847    0.74995    0.74877   1.00
C3       0.79468    0.93291    0.68685   1.00
C3       0.57044    0.81913    0.74318   1.00
C3       0.79792    0.82860    0.68831   1.00
C3       0.56626    0.71131    0.74065   1.00
H1       0.71842    0.93450    0.70317   1.00
H1       0.64706    0.89803    0.72726   1.00
C5       0.71268    0.72825    0.70835   1.00
C5       0.65099    0.69711    0.72003   1.00
H1       0.81259    0.98179    0.68172   1.00
H1       0.55289    0.84994    0.74871   1.00
H1       0.82091    0.80225    0.68361   1.00
H1       0.54294    0.66157    0.74497   1.00
C6       0.74925    0.68949    0.70333   1.00
C6       0.61391    0.62137    0.72448   1.00
H2       0.80380    0.72282    0.70569   1.00
H2       0.55942    0.60074    0.72219   1.00
H2       0.73763    0.64914    0.71425   1.00
H2       0.62523    0.59336    0.71322   1.00
C6       0.73331    0.65821    0.68145   1.00
C6       0.62964    0.60396    0.74612   1.00
H2       0.73525    0.69585    0.67068   1.00
H2       0.62802    0.63890    0.75725   1.00
C6       0.77928    0.63037    0.67295   1.00
C6       0.58321    0.52953    0.75410   1.00
H2       0.68039    0.61668    0.68127   1.00
H2       0.68242    0.61493    0.74614   1.00
C6       0.85380    0.68847    0.66962   1.00
C6       0.50888    0.51340    0.75764   1.00
C6       0.77911    0.57573    0.68713   1.00
C6       0.58291    0.47605    0.73938   1.00
C6       0.75060    0.59655    0.65204   1.00
C6       0.61171    0.52234    0.77481   1.00
H2       0.85560    0.72846    0.65993   1.00
H2       0.50743    0.55093    0.76772   1.00
H2       0.87856    0.71180    0.68391   1.00
H2       0.48422    0.51340    0.74347   1.00
H2       0.88426    0.66929    0.66239   1.00
H2       0.47811    0.46322    0.76453   1.00
H2       0.80728    0.55318    0.68038   1.00
H2       0.55440    0.42479    0.74576   1.00
H2       0.80311    0.59797    0.70162   1.00
H2       0.55900    0.47573    0.72500   1.00
H2       0.72711    0.53491    0.69006   1.00
H2       0.63478    0.48708    0.73630   1.00
H2       0.75028    0.63325    0.64136   1.00
H2       0.61236    0.55859    0.78586   1.00
H2       0.78134    0.57667    0.64540   1.00
H2       0.58066    0.47121    0.78109   1.00
H2       0.69845    0.55415    0.65345   1.00
H2       0.66371    0.53178    0.77323   1.00
C4       0.12122    0.29110    0.70734   1.00
C4       0.14897    0.34868    0.72062   1.00
C3       0.12750    0.23258    0.71122   1.00
C3       0.17856    0.34888    0.73971   1.00
C3       0.08575    0.29120    0.68940   1.00
C3       0.14743    0.40876    0.71484   1.00
C2       0.06223    0.17324    0.68102   1.00
C2       0.20813    0.46627    0.74704   1.00
C3       0.09867    0.17526    0.69854   1.00
C3       0.20757    0.40592    0.75250   1.00
C3       0.05680    0.23165    0.67695   1.00
C3       0.17786    0.46589    0.72825   1.00
H1       0.15386    0.22968    0.72330   1.00
H1       0.17953    0.30734    0.74513   1.00
C5       0.08024    0.34979    0.68424   1.00
C5       0.11577    0.41060    0.69619   1.00
H1       0.10477    0.13456    0.70223   1.00
H1       0.22835    0.40290    0.76603   1.00
H1       0.03081    0.22961    0.66415   1.00
H1       0.17817    0.50968    0.72460   1.00
C6       0.03645    0.34644    0.66643   1.00
C6       0.12092    0.47677    0.68926   1.00
H2       -0.01126   0.29794    0.66682   1.00
H2       0.17292    0.51830    0.69161   1.00
H2       0.01852    0.38265    0.66802   1.00
H2       0.11579    0.47805    0.67290   1.00
C6       0.07347    0.35830    0.64548   1.00
C6       0.06748    0.49162    0.69968   1.00
H2       0.10017    0.32930    0.64494   1.00
H2       0.06527    0.48079    0.71591   1.00
C6       0.02888    0.34115    0.62586   1.00
C6       0.07756    0.56487    0.69720   1.00
H2       0.11349    0.41180    0.64476   1.00
H2       0.01714    0.45488    0.69380   1.00
C6       -0.02246   0.26362    0.62405   1.00
C6       0.14306    0.61937    0.70808   1.00
C6       -0.01050   0.38073    0.62512   1.00
C6       0.08046    0.58460    0.67458   1.00
C6       0.07668    0.36247    0.60710   1.00
C6       0.01593    0.56605    0.70710   1.00
H2       0.00366    0.23414    0.62486   1.00
H2       0.14309    0.60633    0.72403   1.00
H2       -0.06034   0.24593    0.63612   1.00
H2       0.18881    0.62426    0.70106   1.00
H2       -0.04994   0.25160    0.60968   1.00
H2       0.14714    0.66944    0.70747   1.00
H2       -0.03752   0.37221    0.61075   1.00
H2       0.08258    0.63361    0.67300   1.00
H2       -0.04827   0.36421    0.63722   1.00
H2       0.12563    0.58909    0.66721   1.00
H2       0.02434    0.43539    0.62679   1.00
H2       0.03557    0.54628    0.66647   1.00
H2       0.10524    0.33537    0.60678   1.00
H2       0.01198    0.55313    0.72319   1.00
H2       0.04778    0.35106    0.59299   1.00
H2       0.02086    0.61640    0.70587   1.00
H2       0.11330    0.41707    0.60729   1.00
H2       -0.03182   0.52953    0.69979   1.00
C4       0.16951    0.87860    0.70740   1.00
C4       0.19930    0.85090    0.72071   1.00
C3       0.10338    0.86969    0.71077   1.00
C3       0.16827    0.81863    0.73939   1.00
C3       0.20649    0.91673    0.68997   1.00
C3       0.26260    0.85527    0.71540   1.00
C2       0.11056    0.93742    0.68105   1.00
C2       0.25781    0.79190    0.74717   1.00
C3       0.07483    0.89843    0.69808   1.00
C3       0.19634    0.78969    0.75219   1.00
C3       0.17576    0.94548    0.67748   1.00
C3       0.28930    0.82482    0.72880   1.00
H1       0.07318    0.84140    0.72246   1.00
H1       0.12444    0.81554    0.74449   1.00
C5       0.27208    0.92501    0.68532   1.00
C5       0.29769    0.88967    0.69721   1.00
H1       0.02703    0.89035    0.70138   1.00
H1       0.17132    0.76690    0.76541   1.00
H1       0.20066    0.97330    0.66503   1.00
H1       0.33395    0.82648    0.72548   1.00
C6       0.31369    0.97146    0.66809   1.00
C6       0.36074    0.88758    0.69070   1.00
H2       0.31111    1.01820    0.66878   1.00
H2       0.35172    0.83592    0.69264   1.00
H2       0.36792    0.99079    0.67019   1.00
H2       0.36898    0.89472    0.67443   1.00
C6       0.29189    0.93665    0.64674   1.00
C6       0.42705    0.94124    0.70196   1.00
H2       0.23627    0.90854    0.64562   1.00
H2       0.41632    0.94124    0.71812   1.00
C6       0.32046    0.98364    0.62762   1.00
C6       0.49195    0.93388    0.69987   1.00
H2       0.30713    0.89794    0.64587   1.00
H2       0.43973    0.99179    0.69650   1.00
C6       0.29217    1.03328    0.62595   1.00
C6       0.48188    0.86798    0.71025   1.00
C6       0.39942    1.02516    0.62771   1.00
C6       0.51181    0.93424    0.67737   1.00
C6       0.29745    0.93796    0.60838   1.00
C6       0.55244    0.99545    0.71061   1.00
H2       0.23648    1.00559    0.62618   1.00
H2       0.46672    0.86564    0.72609   1.00
H2       0.30993    1.06978    0.63839   1.00
H2       0.44279    0.82243    0.70264   1.00
H2       0.30858    1.06246    0.61187   1.00
H2       0.52887    0.86567    0.70995   1.00
H2       0.41893    1.05399    0.61365   1.00
H2       0.55976    0.93401    0.67612   1.00
H2       0.41826    1.06158    0.64019   1.00
H2       0.47294    0.88932    0.66943   1.00
H2       0.42065    0.99149    0.62930   1.00
H2       0.51781    0.97945    0.66960   1.00
H2       0.24191    0.90799    0.60747   1.00
H2       0.54130    0.99715    0.72665   1.00
H2       0.31583    0.96855    0.59458   1.00
H2       0.59896    0.99236    0.70968   1.00
H2       0.31704    0.90264    0.60847   1.00
H2       0.56298    1.04354    0.70369   1.00
