data_IRMOF10_interpen_symm_ligand4lp_label_h_2.

_audit_creation_method             'generated by an auxiliary program of Tobunporous'

_symmetry_space_group_name_H-M     'P 1'
_symmetry_Int_Tables_number        1
_symmetry_cell_setting             triclinic

_cell_length_a                    22.6523
_cell_length_b                    22.6523
_cell_length_c                    65.9502
_cell_angle_alpha                 90.0000
_cell_angle_beta                  90.0000
_cell_angle_gamma                 120.0000

loop_
_atom_site_label
_atom_site_fract_x
_atom_site_fract_y
_atom_site_fract_z
_atom_site_occupancy
O1       0.00000    -0.00000   0.62500   1.00
Zn1      0.00000    -0.00000   0.59589   1.00
Zn1      0.94848    1.04288    0.63392   1.00
Zn1      0.09439    0.05152    0.63392   1.00
Zn1      -0.04288   0.90561    0.63392   1.00
O2       0.93860    0.02610    0.58587   1.00
O2       0.08750    0.06140    0.58587   1.00
O2       -0.02610   0.91250    0.58587   1.00
O2       0.91305    0.07161    0.61181   1.00
O2       0.00462    0.12022    0.65110   1.00
O2       0.87413    0.98074    0.65071   1.00
O2       0.15856    0.08695    0.61181   1.00
O2       0.10660    0.12587    0.65071   1.00
O2       0.11559    0.99538    0.65110   1.00
O2       -0.07161   0.84144    0.61181   1.00
O2       0.87978    0.88441    0.65110   1.00
O2       0.01926    0.89340    0.65071   1.00
C1       0.91390    0.06020    0.59358   1.00
C1       0.14630    0.08610    0.59358   1.00
C1       -0.06020   0.85370    0.59358   1.00
C1       0.06663    0.14397    0.65673   1.00
C1       0.85603    0.92267    0.65673   1.00
C1       0.07733    0.93337    0.65673   1.00
O1       -0.00000   0.00000    0.87500   1.00
Zn1      -0.00000   0.00000    0.90411   1.00
Zn1      1.04288    0.94848    0.86608   1.00
Zn1      0.05152    0.09439    0.86608   1.00
Zn1      0.90561    -0.04288   0.86608   1.00
O2       0.02610    0.93860    0.91413   1.00
O2       0.06140    0.08750    0.91413   1.00
O2       0.91250    -0.02610   0.91413   1.00
O2       0.07161    0.91305    0.88819   1.00
O2       0.12022    0.00462    0.84890   1.00
O2       0.98074    0.87413    0.84929   1.00
O2       0.08695    0.15856    0.88819   1.00
O2       0.12587    0.10660    0.84929   1.00
O2       0.99538    0.11559    0.84890   1.00
O2       0.84144    -0.07161   0.88819   1.00
O2       0.88441    0.87978    0.84890   1.00
O2       0.89340    0.01926    0.84929   1.00
C1       0.06020    0.91390    0.90642   1.00
C1       0.08610    0.14630    0.90642   1.00
C1       0.85370    -0.06020   0.90642   1.00
C1       0.14397    0.06663    0.84327   1.00
C1       0.92267    0.85603    0.84327   1.00
C1       0.93337    0.07733    0.84327   1.00
O1       0.00000    0.00000    0.37500   1.00
Zn1      0.00000    0.00000    0.40411   1.00
Zn1      0.05152    -0.04288   0.36608   1.00
Zn1      0.90561    0.94848    0.36608   1.00
Zn1      1.04288    0.09439    0.36608   1.00
O2       0.06140    -0.02610   0.41413   1.00
O2       0.91250    0.93860    0.41413   1.00
O2       0.02610    0.08750    0.41413   1.00
O2       0.08695    -0.07161   0.38819   1.00
O2       0.99538    0.87978    0.34890   1.00
O2       0.12587    0.01926    0.34929   1.00
O2       0.84144    0.91305    0.38819   1.00
O2       0.89340    0.87413    0.34929   1.00
O2       0.88441    0.00462    0.34890   1.00
O2       0.07161    0.15856    0.38819   1.00
O2       0.12022    0.11559    0.34890   1.00
O2       0.98074    0.10660    0.34929   1.00
C1       0.08610    -0.06020   0.40642   1.00
C1       0.85370    0.91390    0.40642   1.00
C1       0.06020    0.14630    0.40642   1.00
C1       0.93337    0.85603    0.34327   1.00
C1       0.14397    0.07733    0.34327   1.00
C1       0.92267    0.06663    0.34327   1.00
O1       0.00000    0.00000    0.12500   1.00
Zn1      0.00000    0.00000    0.09589   1.00
Zn1      -0.04288   0.05152    0.13392   1.00
Zn1      0.94848    0.90561    0.13392   1.00
Zn1      0.09439    1.04288    0.13392   1.00
O2       -0.02610   0.06140    0.08587   1.00
O2       0.93860    0.91250    0.08587   1.00
O2       0.08750    0.02610    0.08587   1.00
O2       -0.07161   0.08695    0.11181   1.00
O2       0.87978    0.99538    0.15110   1.00
O2       0.01926    0.12587    0.15071   1.00
O2       0.91305    0.84144    0.11181   1.00
O2       0.87413    0.89340    0.15071   1.00
O2       0.00462    0.88441    0.15110   1.00
O2       0.15856    0.07161    0.11181   1.00
O2       0.11559    0.12022    0.15110   1.00
O2       0.10660    0.98074    0.15071   1.00
C1       -0.06020   0.08610    0.09358   1.00
C1       0.91390    0.85370    0.09358   1.00
C1       0.14630    0.06020    0.09358   1.00
C1       0.85603    0.93337    0.15673   1.00
C1       0.07733    0.14397    0.15673   1.00
C1       0.06663    0.92267    0.15673   1.00
O1       0.66667    0.33333    0.95833   1.00
Zn1      0.66667    0.33333    0.92922   1.00
Zn1      0.61515    0.37621    0.96725   1.00
Zn1      0.76106    0.38485    0.96725   1.00
Zn1      -0.37621   0.23894    0.96725   1.00
O2       0.60527    0.35943    0.91920   1.00
O2       0.75417    0.39473    0.91920   1.00
O2       0.64057    0.24583    0.91920   1.00
O2       0.57972    0.40494    0.94514   1.00
O2       0.67129    0.45355    0.98443   1.00
O2       0.54080    0.31407    0.98404   1.00
O2       0.82523    0.42028    0.94514   1.00
O2       0.77327    0.45920    0.98404   1.00
O2       -0.21774   0.32871    0.98443   1.00
O2       0.59506    0.17477    0.94514   1.00
O2       0.54645    0.21774    0.98443   1.00
O2       -0.31407   0.22673    0.98404   1.00
C1       0.58057    0.39353    0.92691   1.00
C1       0.81297    0.41943    0.92691   1.00
C1       0.60647    0.18703    0.92691   1.00
C1       0.73330    0.47730    0.99006   1.00
C1       0.52270    0.25600    0.99006   1.00
C1       -0.25600   0.26670    0.99006   1.00
O1       0.66667    0.33333    0.20833   1.00
Zn1      0.66667    0.33333    0.23744   1.00
Zn1      0.70954    0.28182    0.19942   1.00
Zn1      0.71818    0.42773    0.19942   1.00
Zn1      0.57227    0.29046    0.19942   1.00
O2       0.69277    0.27193    0.24746   1.00
O2       0.72807    0.42083    0.24746   1.00
O2       0.57917    0.30723    0.24746   1.00
O2       0.73828    0.24638    0.22152   1.00
O2       0.78688    0.33796    0.18224   1.00
O2       0.64740    0.20747    0.18263   1.00
O2       0.75362    0.49189    0.22152   1.00
O2       0.79253    0.43994    0.18263   1.00
O2       0.66204    0.44893    0.18224   1.00
O2       0.50811    0.26172    0.22152   1.00
O2       0.55107    0.21312    0.18224   1.00
O2       0.56006    0.35260    0.18263   1.00
C1       0.72687    0.24723    0.23975   1.00
C1       0.75277    0.47963    0.23975   1.00
C1       0.52037    0.27313    0.23975   1.00
C1       0.81063    0.39997    0.17661   1.00
C1       0.58933    0.18937    0.17661   1.00
C1       0.60003    0.41067    0.17661   1.00
O1       0.66667    0.33333    0.70833   1.00
Zn1      0.66667    0.33333    0.73744   1.00
Zn1      0.71818    0.29046    0.69942   1.00
Zn1      0.57227    0.28182    0.69942   1.00
Zn1      0.70954    0.42773    0.69942   1.00
O2       0.72807    0.30723    0.74746   1.00
O2       0.57917    0.27193    0.74746   1.00
O2       0.69277    0.42083    0.74746   1.00
O2       0.75362    0.26172    0.72152   1.00
O2       0.66204    0.21312    0.68224   1.00
O2       0.79253    0.35260    0.68263   1.00
O2       0.50811    0.24638    0.72152   1.00
O2       0.56006    0.20747    0.68263   1.00
O2       0.55107    0.33796    0.68224   1.00
O2       0.73828    0.49189    0.72152   1.00
O2       0.78688    0.44893    0.68224   1.00
O2       0.64740    0.43994    0.68263   1.00
C1       0.75277    0.27313    0.73975   1.00
C1       0.52037    0.24723    0.73975   1.00
C1       0.72687    0.47963    0.73975   1.00
C1       0.60003    0.18937    0.67661   1.00
C1       0.81063    0.41067    0.67661   1.00
C1       0.58933    0.39997    0.67661   1.00
O1       0.66667    0.33333    0.45833   1.00
Zn1      0.66667    0.33333    0.42922   1.00
Zn1      -0.37621   0.38485    0.46725   1.00
Zn1      0.61515    0.23894    0.46725   1.00
Zn1      0.76106    0.37621    0.46725   1.00
O2       0.64057    0.39473    0.41920   1.00
O2       0.60527    0.24583    0.41920   1.00
O2       0.75417    0.35943    0.41920   1.00
O2       0.59506    0.42028    0.44514   1.00
O2       0.54645    0.32871    0.48443   1.00
O2       -0.31407   0.45920    0.48404   1.00
O2       0.57972    0.17477    0.44514   1.00
O2       0.54080    0.22673    0.48404   1.00
O2       0.67129    0.21774    0.48443   1.00
O2       0.82523    0.40494    0.44514   1.00
O2       -0.21774   0.45355    0.48443   1.00
O2       0.77327    0.31407    0.48404   1.00
C1       0.60647    0.41943    0.42691   1.00
C1       0.58057    0.18703    0.42691   1.00
C1       0.81297    0.39353    0.42691   1.00
C1       0.52270    0.26670    0.49006   1.00
C1       -0.25600   0.47730    0.49006   1.00
C1       0.73330    0.25600    0.49006   1.00
O1       0.33333    0.66667    0.29167   1.00
Zn1      0.33333    0.66667    0.26256   1.00
Zn1      0.28182    0.70954    0.30058   1.00
Zn1      0.42773    0.71818    0.30058   1.00
Zn1      0.29046    0.57227    0.30058   1.00
O2       0.27193    0.69277    0.25254   1.00
O2       0.42083    0.72807    0.25254   1.00
O2       0.30723    0.57917    0.25254   1.00
O2       0.24638    0.73828    0.27848   1.00
O2       0.33796    0.78688    0.31776   1.00
O2       0.20747    0.64740    0.31737   1.00
O2       0.49189    0.75362    0.27848   1.00
O2       0.43994    0.79253    0.31737   1.00
O2       0.44893    0.66204    0.31776   1.00
O2       0.26172    0.50811    0.27848   1.00
O2       0.21312    0.55107    0.31776   1.00
O2       0.35260    0.56006    0.31737   1.00
C1       0.24723    0.72687    0.26025   1.00
C1       0.47963    0.75277    0.26025   1.00
C1       0.27313    0.52037    0.26025   1.00
C1       0.39997    0.81063    0.32339   1.00
C1       0.18937    0.58933    0.32339   1.00
C1       0.41067    0.60003    0.32339   1.00
O1       0.33333    0.66667    0.54167   1.00
Zn1      0.33333    0.66667    0.57078   1.00
Zn1      0.37621    0.61515    0.53275   1.00
Zn1      0.38485    0.76106    0.53275   1.00
Zn1      0.23894    -0.37621   0.53275   1.00
O2       0.35943    0.60527    0.58080   1.00
O2       0.39473    0.75417    0.58080   1.00
O2       0.24583    0.64057    0.58080   1.00
O2       0.40494    0.57972    0.55486   1.00
O2       0.45355    0.67129    0.51557   1.00
O2       0.31407    0.54080    0.51596   1.00
O2       0.42028    0.82523    0.55486   1.00
O2       0.45920    0.77327    0.51596   1.00
O2       0.32871    -0.21774   0.51557   1.00
O2       0.17477    0.59506    0.55486   1.00
O2       0.21774    0.54645    0.51557   1.00
O2       0.22673    -0.31407   0.51596   1.00
C1       0.39353    0.58057    0.57309   1.00
C1       0.41943    0.81297    0.57309   1.00
C1       0.18703    0.60647    0.57309   1.00
C1       0.47730    0.73330    0.50994   1.00
C1       0.25600    0.52270    0.50994   1.00
C1       0.26670    -0.25600   0.50994   1.00
O1       0.33333    0.66667    0.04167   1.00
Zn1      0.33333    0.66667    0.07078   1.00
Zn1      0.38485    -0.37621   0.03275   1.00
Zn1      0.23894    0.61515    0.03275   1.00
Zn1      0.37621    0.76106    0.03275   1.00
O2       0.39473    0.64057    0.08080   1.00
O2       0.24583    0.60527    0.08080   1.00
O2       0.35943    0.75417    0.08080   1.00
O2       0.42028    0.59506    0.05486   1.00
O2       0.32871    0.54645    0.01557   1.00
O2       0.45920    -0.31407   0.01596   1.00
O2       0.17477    0.57972    0.05486   1.00
O2       0.22673    0.54080    0.01596   1.00
O2       0.21774    0.67129    0.01557   1.00
O2       0.40494    0.82523    0.05486   1.00
O2       0.45355    -0.21774   0.01557   1.00
O2       0.31407    0.77327    0.01596   1.00
C1       0.41943    0.60647    0.07309   1.00
C1       0.18703    0.58057    0.07309   1.00
C1       0.39353    0.81297    0.07309   1.00
C1       0.26670    0.52270    0.00994   1.00
C1       0.47730    -0.25600   0.00994   1.00
C1       0.25600    0.73330    0.00994   1.00
O1       0.33333    0.66667    0.79167   1.00
Zn1      0.33333    0.66667    0.76256   1.00
Zn1      0.29046    0.71818    0.80058   1.00
Zn1      0.28182    0.57227    0.80058   1.00
Zn1      0.42773    0.70954    0.80058   1.00
O2       0.30723    0.72807    0.75254   1.00
O2       0.27193    0.57917    0.75254   1.00
O2       0.42083    0.69277    0.75254   1.00
O2       0.26172    0.75362    0.77848   1.00
O2       0.21312    0.66204    0.81776   1.00
O2       0.35260    0.79253    0.81737   1.00
O2       0.24638    0.50811    0.77848   1.00
O2       0.20747    0.56006    0.81737   1.00
O2       0.33796    0.55107    0.81776   1.00
O2       0.49189    0.73828    0.77848   1.00
O2       0.44893    0.78688    0.81776   1.00
O2       0.43994    0.64740    0.81737   1.00
C1       0.27313    0.75277    0.76025   1.00
C1       0.24723    0.52037    0.76025   1.00
C1       0.47963    0.72687    0.76025   1.00
C1       0.18937    0.60003    0.82339   1.00
C1       0.41067    0.81063    0.82339   1.00
C1       0.39997    0.58933    0.82339   1.00
C4       -0.17345   0.63665    0.53615   1.00
C4       -0.14835   0.68947    0.55107   1.00
C3       -0.15979   0.58173    0.53696   1.00
C3       -0.11405   0.68729    0.56893   1.00
C3       -0.21376   0.63805    0.51966   1.00
C3       -0.15753   0.74700    0.54830   1.00
C2       -0.22697   0.52802    0.50653   1.00
C2       -0.09461   0.79784    0.58078   1.00
C3       -0.18595   0.52883    0.52268   1.00
C3       -0.08766   0.73991    0.58330   1.00
C3       -0.23975   0.58301    0.50549   1.00
C3       -0.12956   0.79968    0.56323   1.00
H1       -0.12975   0.57845    0.54784   1.00
H1       -0.10755   0.64707    0.57227   1.00
C5       -0.22683   0.69353    0.51756   1.00
C5       -0.19415   0.75070    0.53105   1.00
H1       -0.17446   0.49054    0.52416   1.00
H1       -0.06320   0.73540    0.59582   1.00
H1       -0.26899   0.58196    0.49364   1.00
H1       -0.13464   0.84160    0.56172   1.00
C6       -0.27546   0.69069    0.50131   1.00
C6       -0.19718   0.81504    0.52718   1.00
H2       -0.32013   0.63974    0.50106   1.00
H2       -0.14678   0.85917    0.52967   1.00
H2       -0.29795   0.72178    0.50526   1.00
H2       -0.20552   0.82066    0.51124   1.00
C6       -0.24154   0.71259    0.47985   1.00
C6       -0.25306   0.81930    0.54009   1.00
H2       -0.21046   0.68894    0.47698   1.00
H2       -0.25140   0.80396    0.55571   1.00
C6       -0.28982   0.69736    0.46118   1.00
C6       -0.25093   0.88945    0.54080   1.00
H2       -0.20554   0.76738    0.48030   1.00
H2       -0.30285   0.78092    0.53428   1.00
C6       -0.33549   0.61964    0.45748   1.00
C6       -0.18632   0.94464    0.55187   1.00
C6       -0.33557   0.72975    0.46374   1.00
C6       -0.25394   0.91514    0.51926   1.00
C6       -0.24525   0.72867    0.44196   1.00
C6       -0.31399   0.88017    0.55282   1.00
H2       -0.30474   0.59505    0.45594   1.00
H2       -0.18210   0.92758    0.56703   1.00
H2       -0.37121   0.59494    0.46991   1.00
H2       -0.14007   0.95679    0.54355   1.00
H2       -0.36549   0.60961    0.44365   1.00
H2       -0.18761   0.99192    0.55353   1.00
H2       -0.36546   0.72303    0.45006   1.00
H2       -0.25735   0.96150    0.51997   1.00
H2       -0.37130   0.70615    0.47625   1.00
H2       -0.20833   0.92696    0.51059   1.00
H2       -0.30472   0.78427    0.46679   1.00
H2       -0.29824   0.87662    0.51097   1.00
H2       -0.21238   0.70694    0.43934   1.00
H2       -0.31395   0.86272    0.56826   1.00
H2       -0.27674   0.71897    0.42847   1.00
H2       -0.31454   0.92802    0.55385   1.00
H2       -0.21277   0.78380    0.44348   1.00
H2       -0.36134   0.84275    0.54551   1.00
C4       0.36060    0.18594    0.53531   1.00
C4       0.30674    0.15809    0.54990   1.00
C3       0.42906    0.23466    0.54058   1.00
C3       0.31873    0.17146    0.57107   1.00
C3       0.34639    0.16493    0.51458   1.00
C3       0.23795    0.11503    0.54335   1.00
C2       0.47020    0.23979    0.50601   1.00
C2       0.19751    0.10452    0.57932   1.00
C3       0.48233    0.26058    0.52643   1.00
C3       0.26584    0.14584    0.58535   1.00
C3       0.40215    0.19226    0.50066   1.00
C3       0.18551    0.09027    0.55837   1.00
H1       0.44266    0.25365    0.55486   1.00
H1       0.36641    0.19977    0.57693   1.00
C5       0.27799    0.11820    0.50820   1.00
C5       0.22300    0.09742    0.52235   1.00
H1       0.53063    0.29538    0.53120   1.00
H1       0.27783    0.15758    0.60038   1.00
H1       0.39415    0.17820    0.48582   1.00
H1       0.13593    0.05989    0.55429   1.00
C6       0.26482    0.09087    0.48672   1.00
C6       0.14952    0.05788    0.51535   1.00
H2       0.30311    0.07727    0.48260   1.00
H2       0.12084    0.07890    0.52262   1.00
H2       0.21808    0.04189    0.48565   1.00
H2       0.14454    0.06695    0.49942   1.00
C6       0.26187    0.14117    0.47096   1.00
C6       0.11563    -0.02085   0.51901   1.00
H2       0.30360    0.19291    0.47386   1.00
H2       0.12883    -0.03019   0.53416   1.00
C6       0.26376    0.12546    0.44791   1.00
C6       0.03636    -0.06487   0.51662   1.00
H2       0.21527    0.14295    0.47384   1.00
H2       0.13910    -0.04047   0.50853   1.00
C6       0.33325    0.13273    0.44180   1.00
C6       -0.00138   -0.04763   0.53317   1.00
C6       0.20563    0.05311    0.44225   1.00
C6       0.01267    -0.05566   0.49540   1.00
C6       0.25410    0.17783    0.43525   1.00
C6       0.01499    -0.14119   0.51909   1.00
H2       0.37547    0.18294    0.44590   1.00
H2       0.01506    -0.05256   0.54834   1.00
H2       0.34150    0.09450    0.44922   1.00
H2       0.00803    0.00423    0.53155   1.00
H2       0.33580    0.12635    0.42548   1.00
H2       -0.05641   -0.08175   0.53225   1.00
H2       0.20440    0.04449    0.42593   1.00
H2       -0.04194   -0.09014   0.49337   1.00
H2       0.21261    0.01405    0.44970   1.00
H2       0.02229    -0.00380   0.49340   1.00
H2       0.15622    0.04616    0.44678   1.00
H2       0.03955    -0.06610   0.48346   1.00
H2       0.29436    0.22988    0.43852   1.00
H2       0.02993    -0.15063   0.53395   1.00
H2       0.25550    0.16922    0.41900   1.00
H2       -0.04014   -0.17405   0.51768   1.00
H2       0.20520    0.17425    0.43859   1.00
H2       0.03894    -0.15686   0.50755   1.00
C4       0.81462    0.16847    0.53317   1.00
C4       0.84005    0.13935    0.54753   1.00
C3       0.83845    0.23979    0.53238   1.00
C3       0.89593    0.18004    0.56063   1.00
C3       0.76331    0.12538    0.51897   1.00
C3       0.80910    0.06687    0.54903   1.00
C2       0.76565    0.22783    0.50350   1.00
C2       0.88938    0.08051    0.57725   1.00
C3       0.81505    0.26872    0.51795   1.00
C3       0.91972    0.15165    0.57512   1.00
C3       0.74110    0.15691    0.50445   1.00
C3       0.83460    0.03997    0.56406   1.00
H1       0.87322    0.27331    0.54238   1.00
H1       0.92189    0.23184    0.56000   1.00
C5       0.73528    0.05289    0.51958   1.00
C5       0.75453    0.02330    0.53567   1.00
H1       0.83447    0.32055    0.51812   1.00
H1       0.96004    0.18377    0.58417   1.00
H1       0.70503    0.12802    0.49402   1.00
H1       0.81362    -0.01130   0.56568   1.00
C6       0.68642    0.00871    0.50314   1.00
C6       0.71753    -0.05315   0.53885   1.00
H2       0.70572    0.03291    0.48846   1.00
H2       0.70775    -0.06397   0.55499   1.00
H2       0.68663    -0.03889   0.50133   1.00
H2       0.66607    -0.07755   0.53274   1.00
C6       0.61133    -0.00759   0.50678   1.00
C6       0.75611    -0.08814   0.52957   1.00
H2       0.61151    0.03876    0.51151   1.00
H2       0.81036    -0.05802   0.53324   1.00
C6       0.55982    -0.03964   0.48876   1.00
C6       0.73094    -0.16383   0.53575   1.00
H2       0.59117    -0.04213   0.51974   1.00
H2       0.75336    -0.08580   0.51307   1.00
C6       0.57890    0.01088    0.47078   1.00
C6       0.74332    -0.17014   0.55859   1.00
C6       0.55535    -0.10646   0.48113   1.00
C6       0.65434    -0.21092   0.53087   1.00
C6       0.48794    -0.05702   0.49631   1.00
C6       0.77207    -0.18966   0.52345   1.00
H2       0.58356    0.05905    0.47575   1.00
H2       0.79680    -0.13664   0.56260   1.00
H2       0.62714    0.02209    0.46391   1.00
H2       0.71259    -0.15676   0.56816   1.00
H2       0.54020    -0.01011   0.45890   1.00
H2       0.73003    -0.22222   0.56243   1.00
H2       0.51584    -0.13092   0.46958   1.00
H2       0.63851    -0.26422   0.53387   1.00
H2       0.60343    -0.09640   0.47436   1.00
H2       0.62269    -0.19789   0.54017   1.00
H2       0.54338    -0.14240   0.49359   1.00
H2       0.64398    -0.20637   0.51496   1.00
H2       0.48810    -0.01133   0.50169   1.00
H2       0.82661    -0.15849   0.52652   1.00
H2       0.45015    -0.07918   0.48420   1.00
H2       0.75661    -0.24230   0.52734   1.00
H2       0.47097    -0.09364   0.50877   1.00
H2       0.76432    -0.18776   0.50718   1.00
C4       0.64688    -0.16594   0.96708   1.00
C4       0.70112    -0.13631   0.95263   1.00
C3       0.61267    -0.23669   0.97198   1.00
C3       0.72967    -0.17371   0.94369   1.00
C3       0.62529    -0.12400   0.97713   1.00
C3       0.72856    -0.06665   0.94675   1.00
C2       0.53944    -0.22531   0.99702   1.00
C2       0.80854    -0.07744   0.92267   1.00
C3       0.56081    -0.26553   0.98656   1.00
C3       0.78150    -0.14539   0.92909   1.00
C3       0.57254    -0.15528   0.99196   1.00
C3       0.78107    -0.03984   0.93175   1.00
H1       0.62368    -0.27007   0.96500   1.00
H1       0.71435    -0.22273   0.94760   1.00
C5       0.65585    -0.05299   0.97221   1.00
C5       0.70387    -0.02559   0.95585   1.00
H1       0.53834    -0.31685   0.98946   1.00
H1       0.79972    -0.17514   0.92316   1.00
H1       0.55613    -0.12704   0.99953   1.00
H1       0.80154    0.00933    0.92707   1.00
C6       0.63765    -0.00779   0.98448   1.00
C6       0.72817    0.04570    0.94794   1.00
H2       0.63686    -0.01976   1.00052   1.00
H2       0.72829    0.04474    0.93142   1.00
H2       0.67800    0.04526    0.98402   1.00
H2       0.69146    0.06218    0.95100   1.00
C6       0.56907    -0.01262   0.97764   1.00
C6       0.79934    0.10006    0.95663   1.00
H2       0.53051    -0.06603   0.97520   1.00
H2       0.83403    0.07962    0.95631   1.00
C6       0.53749    0.01962    0.99190   1.00
C6       0.83637    0.17185    0.94625   1.00
H2       0.57748    0.01145    0.96274   1.00
H2       0.79256    0.10708    0.97269   1.00
C6       0.51381    -0.01902   1.01238   1.00
C6       0.85782    0.16780    0.92418   1.00
C6       0.58834    0.09598    0.99606   1.00
C6       0.79128    0.20548    0.94621   1.00
C6       0.47378    0.01439    0.98132   1.00
C6       0.90227    0.21881    0.95840   1.00
H2       0.47867    -0.07334   1.00996   1.00
H2       0.88882    0.14326    0.92366   1.00
H2       0.55675    -0.01388   1.02122   1.00
H2       0.81363    0.13892    0.91446   1.00
H2       0.48764    0.00080    1.02163   1.00
H2       0.88768    0.21854    0.91756   1.00
H2       0.56426    0.11916    1.00480   1.00
H2       0.81930    0.25738    0.94027   1.00
H2       0.63210    0.10226    1.00473   1.00
H2       0.74636    0.17690    0.93670   1.00
H2       0.60691    0.12411    0.98187   1.00
H2       0.77430    0.20766    0.96153   1.00
H2       0.43583    -0.03871   0.97822   1.00
H2       0.93633    0.19769    0.95872   1.00
H2       0.44960    0.03589    0.99078   1.00
H2       0.93023    0.26954    0.95164   1.00
H2       0.48743    0.04191    0.96693   1.00
H2       0.89037    0.22482    0.97404   1.00
C4       0.18595    0.36061    0.96469   1.00
C4       0.15810    0.30675    0.95010   1.00
C3       0.23472    0.42905    0.95942   1.00
C3       0.17152    0.31873    0.92893   1.00
C3       0.16488    0.34641    0.98542   1.00
C3       0.11498    0.23796    0.95664   1.00
C2       0.23980    0.47021    0.99399   1.00
C2       0.10453    0.19752    0.92067   1.00
C3       0.26064    0.48232    0.97358   1.00
C3       0.14590    0.26585    0.91465   1.00
C3       0.19222    0.40217    0.99934   1.00
C3       0.09022    0.18553    0.94163   1.00
H1       0.25375    0.44264    0.94515   1.00
H1       0.19988    0.36641    0.92308   1.00
C5       0.11810    0.27801    0.99179   1.00
C5       0.09731    0.22302    0.97765   1.00
H1       0.29548    0.53061    0.96880   1.00
H1       0.15768    0.27783    0.89962   1.00
H1       0.17812    0.39418    1.01417   1.00
H1       0.05980    0.13595    0.94571   1.00
C6       0.09072    0.26486    1.01327   1.00
C6       0.05771    0.14955    0.98464   1.00
H2       0.07714    0.30318    1.01737   1.00
H2       0.07871    0.12083    0.97738   1.00
H2       0.04171    0.21815    1.01432   1.00
H2       0.06672    0.14456    1.00057   1.00
C6       0.14095    0.26187    1.02904   1.00
C6       -0.02101   0.11571    0.98097   1.00
H2       0.19271    0.30357    1.02615   1.00
H2       -0.03030   0.12892    0.96581   1.00
C6       0.12519    0.26377    1.05208   1.00
C6       -0.06509   0.03644    0.98335   1.00
H2       0.14269    0.21525    1.02617   1.00
H2       -0.04063   0.13921    0.99144   1.00
C6       0.13251    0.33329    1.05819   1.00
C6       -0.04785   -0.00133   0.96681   1.00
C6       0.05281    0.20568    1.05773   1.00
C6       -0.05595   0.01274    1.00458   1.00
C6       0.17750    0.25406    1.06476   1.00
C6       -0.14139   0.01514    0.98086   1.00
H2       0.18274    0.37548    1.05409   1.00
H2       -0.05273   0.01512    0.95164   1.00
H2       0.09432    0.34157    1.05075   1.00
H2       0.00399    0.00804    0.96845   1.00
H2       0.12609    0.33584    1.07451   1.00
H2       -0.08201   -0.05635   0.96773   1.00
H2       0.04415    0.20446    1.07405   1.00
H2       -0.09048   -0.04187   1.00660   1.00
H2       0.01379    0.21269    1.05027   1.00
H2       -0.00411   0.02231    1.00659   1.00
H2       0.04583    0.15625    1.05320   1.00
H2       -0.06640   0.03963    1.01651   1.00
H2       0.22957    0.29429    1.06150   1.00
H2       -0.15078   0.03009    0.96600   1.00
H2       0.16886    0.25547    1.08100   1.00
H2       -0.17428   -0.03999   0.98227   1.00
H2       0.17389    0.20514    1.06143   1.00
H2       -0.15706   0.03911    0.99239   1.00
C4       0.16847    0.81462    0.96683   1.00
C4       0.13936    0.84005    0.95247   1.00
C3       0.23979    0.83845    0.96762   1.00
C3       0.18004    0.89593    0.93937   1.00
C3       0.12538    0.76331    0.98103   1.00
C3       0.06687    0.80911    0.95098   1.00
C2       0.22783    0.76565    0.99650   1.00
C2       0.08051    0.88938    0.92275   1.00
C3       0.26872    0.81504    0.98205   1.00
C3       0.15165    0.91971    0.92488   1.00
C3       0.15691    0.74111    0.99555   1.00
C3       0.03998    0.83461    0.93594   1.00
H1       0.27331    0.87321    0.95761   1.00
H1       0.23184    0.92188    0.94000   1.00
C5       0.05290    0.73529    0.98043   1.00
C5       0.02330    0.75454    0.96434   1.00
H1       0.32055    0.83446    0.98187   1.00
H1       0.18377    0.96003    0.91583   1.00
H1       0.12802    0.70504    1.00599   1.00
H1       -0.01130   0.81363    0.93432   1.00
C6       0.00872    0.68644    0.99687   1.00
C6       -0.05315   0.71754    0.96116   1.00
H2       0.03291    0.70574    1.01154   1.00
H2       -0.06397   0.70776    0.94501   1.00
H2       -0.03888   0.68665    0.99867   1.00
H2       -0.07755   0.66609    0.96726   1.00
C6       -0.00760   0.61135    0.99323   1.00
C6       -0.08814   0.75613    0.97043   1.00
H2       0.03875    0.61152    0.98849   1.00
H2       -0.05801   0.81038    0.96676   1.00
C6       -0.03964   0.55984    1.01124   1.00
C6       -0.16382   0.73097    0.96426   1.00
H2       -0.04214   0.59118    0.98027   1.00
H2       -0.08579   0.75339    0.98693   1.00
C6       0.01088    0.57892    1.02922   1.00
C6       -0.17014   0.74334    0.94142   1.00
C6       -0.10646   0.55538    1.01888   1.00
C6       -0.21092   0.65436    0.96914   1.00
C6       -0.05703   0.48795    1.00370   1.00
C6       -0.18964   0.77211    0.97656   1.00
H2       0.05905    0.58357    1.02426   1.00
H2       -0.13663   0.79682    0.93741   1.00
H2       0.02209    0.62716    1.03609   1.00
H2       -0.15676   0.71260    0.93185   1.00
H2       -0.01011   0.54022    1.04110   1.00
H2       -0.22222   0.73005    0.93757   1.00
H2       -0.13092   0.51587    1.03043   1.00
H2       -0.26421   0.63854    0.96614   1.00
H2       -0.09639   0.60346    1.02564   1.00
H2       -0.19789   0.62272    0.95984   1.00
H2       -0.14240   0.54340    1.00642   1.00
H2       -0.20636   0.64401    0.98505   1.00
H2       -0.01134   0.48811    0.99832   1.00
H2       -0.15848   0.82664    0.97349   1.00
H2       -0.07919   0.45017    1.01581   1.00
H2       -0.24228   0.75665    0.97267   1.00
H2       -0.09365   0.47099    0.99124   1.00
H2       -0.18774   0.76436    0.99283   1.00
C4       0.17178    0.36420    0.46360   1.00
C4       0.14370    0.31291    0.44823   1.00
C3       0.23320    0.38069    0.47406   1.00
C3       0.17862    0.27965    0.44076   1.00
C3       0.13776    0.40085    0.46893   1.00
C3       0.07830    0.29357    0.43981   1.00
C2       0.23040    0.47022    0.49399   1.00
C2       0.08552    0.20681    0.41786   1.00
C3       0.26189    0.43229    0.48872   1.00
C3       0.15038    0.22798    0.42612   1.00
C3       0.16887    0.45328    0.48386   1.00
C3       0.05117    0.24045    0.42500   1.00
H1       0.25903    0.35537    0.47157   1.00
H1       0.22617    0.29220    0.44554   1.00
C5       0.07427    0.38458    0.45953   1.00
C5       0.04196    0.32722    0.44610   1.00
H1       0.30644    0.44189    0.49566   1.00
H1       0.17804    0.20580    0.42143   1.00
H1       0.14647    0.48077    0.48796   1.00
H1       0.00462    0.22496    0.41876   1.00
C6       0.04263    0.42852    0.46372   1.00
C6       -0.03016   0.30135    0.43868   1.00
H2       0.08233    0.48200    0.46324   1.00
H2       -0.05836   0.24586    0.43953   1.00
H2       0.00946    0.42592    0.45142   1.00
H2       -0.05893   0.31472    0.44906   1.00
C6       0.00171    0.41020    0.48414   1.00
C6       -0.03336   0.32734    0.41690   1.00
H2       0.03100    0.40294    0.49607   1.00
H2       0.00313    0.32315    0.40701   1.00
C6       -0.02022   0.46137    0.49226   1.00
C6       -0.10411   0.29231    0.40589   1.00
H2       -0.04413   0.36044    0.48221   1.00
H2       -0.01522   0.38193    0.41796   1.00
C6       0.04232    0.53046    0.49850   1.00
C6       -0.12862   0.21660    0.40084   1.00
C6       -0.06300   0.47430    0.47641   1.00
C6       -0.15930   0.29643    0.41869   1.00
C6       -0.06497   0.43015    0.51145   1.00
C6       -0.09652   0.33000    0.38554   1.00
H2       0.07420    0.52297    0.50944   1.00
H2       -0.09026   0.21186    0.39208   1.00
H2       0.07391    0.55727    0.48545   1.00
H2       -0.13905   0.18611    0.41454   1.00
H2       0.02638    0.56401    0.50544   1.00
H2       -0.17554   0.19400    0.39194   1.00
H2       -0.08212   0.50611    0.48273   1.00
H2       -0.20707   0.27627    0.41029   1.00
H2       -0.03243   0.50054    0.46313   1.00
H2       -0.17001   0.26674    0.43259   1.00
H2       -0.10661   0.42632    0.47144   1.00
H2       -0.14269   0.34912    0.42282   1.00
H2       -0.03684   0.42065    0.52324   1.00
H2       -0.05854   0.32799    0.37581   1.00
H2       -0.08122   0.46430    0.51778   1.00
H2       -0.14462   0.30706    0.37721   1.00
H2       -0.11074   0.38183    0.50794   1.00
H2       -0.08062   0.38353    0.38813   1.00
C4       0.64567    0.81518    0.46667   1.00
C4       0.69835    0.84282    0.45171   1.00
C3       0.64873    0.77923    0.48401   1.00
C3       0.76086    0.84274    0.45409   1.00
C3       0.58726    0.82323    0.46445   1.00
C3       0.68910    0.87195    0.43359   1.00
C2       0.54077    0.76217    0.49746   1.00
C2       0.80355    0.89567    0.42101   1.00
C3       0.59812    0.75378    0.49900   1.00
C3       0.81178    0.86801    0.43919   1.00
C3       0.53703    0.79688    0.48012   1.00
C3       0.74205    0.89680    0.41873   1.00
H1       0.68752    0.76958    0.48629   1.00
H1       0.77201    0.82494    0.46683   1.00
C5       0.57994    0.85644    0.44690   1.00
C5       0.62848    0.87607    0.43071   1.00
H1       0.60347    0.72855    0.51118   1.00
H1       0.85558    0.86624    0.44179   1.00
H1       0.49501    0.80202    0.47915   1.00
H1       0.73714    0.91746    0.40559   1.00
C6       0.52165    0.87102    0.44579   1.00
C6       0.61616    0.90030    0.41058   1.00
H2       0.51656    0.89055    0.46040   1.00
H2       0.62908    0.87646    0.39833   1.00
H2       0.53349    0.91377    0.43582   1.00
H2       0.56216    0.88071    0.40787   1.00
C6       0.45274    0.80790    0.43884   1.00
C6       0.65503    0.97992    0.40850   1.00
H2       0.44529    0.76228    0.44677   1.00
H2       0.70726    1.00094    0.41403   1.00
C6       0.38620    0.81207    0.44144   1.00
C6       0.65851    1.01041    0.38693   1.00
H2       0.45783    0.79871    0.42283   1.00
H2       0.63110    0.99946    0.41884   1.00
C6       0.36914    0.81416    0.46413   1.00
C6       0.70145    0.99410    0.37203   1.00
C6       0.39157    0.87500    0.43043   1.00
C6       0.58646    0.98411    0.37789   1.00
C6       0.32578    0.74719    0.43196   1.00
C6       0.69363    1.08919    0.38881   1.00
H2       0.36609    0.77094    0.47241   1.00
H2       0.75231    1.01104    0.37812   1.00
H2       0.40758    0.86072    0.47146   1.00
H2       0.67740    0.93962    0.36902   1.00
H2       0.32028    0.81227    0.46582   1.00
H2       0.70753    1.01948    0.35747   1.00
H2       0.34329    0.87479    0.43111   1.00
H2       0.58921    1.00934    0.36352   1.00
H2       0.43032    0.92222    0.43743   1.00
H2       0.56122    0.92947    0.37495   1.00
H2       0.40496    0.87553    0.41451   1.00
H2       0.55469    0.99369    0.38828   1.00
H2       0.31930    0.70117    0.43936   1.00
H2       0.74511    1.11048    0.39494   1.00
H2       0.27795    0.74751    0.43352   1.00
H2       0.69768    1.11293    0.37407   1.00
H2       0.33418    0.74354    0.41581   1.00
H2       0.66491    1.10400    0.39884   1.00
C4       0.18614    -0.17467   0.46463   1.00
C4       0.16109    -0.14870   0.44915   1.00
C3       0.15584    -0.19302   0.48424   1.00
C3       0.09991    -0.14602   0.45146   1.00
C3       0.24371    -0.18283   0.46062   1.00
C3       0.19792    -0.12436   0.43054   1.00
C2       0.23466    -0.23032   0.49561   1.00
C2       0.11216    -0.09312   0.41827   1.00
C3       0.17904    -0.22033   0.49925   1.00
C3       0.07627    -0.11879   0.43656   1.00
C3       0.26553    -0.21116   0.47627   1.00
C3       0.17232    -0.09668   0.41579   1.00
H1       0.11619    -0.18661   0.48843   1.00
H1       0.06987    -0.16437   0.46398   1.00
C5       0.27812    -0.16257   0.44145   1.00
C5       0.25831    -0.12838   0.42700   1.00
H1       0.15481    -0.23280   0.51306   1.00
H1       0.03193    -0.11807   0.43918   1.00
H1       0.30599    -0.21818   0.47394   1.00
H1       0.19734    -0.07844   0.40243   1.00
C6       0.33428    -0.17819   0.43664   1.00
C6       0.30068    -0.09588   0.40819   1.00
H2       0.31837    -0.23005   0.44148   1.00
H2       0.30567    -0.04589   0.40597   1.00
H2       0.34028    -0.18139   0.42039   1.00
H2       0.35350    -0.08260   0.41035   1.00
C6       0.40490    -0.12530   0.44600   1.00
C6       0.27196    -0.14159   0.38879   1.00
H2       0.39771    -0.11427   0.46166   1.00
H2       0.21668    -0.16333   0.38811   1.00
C6       0.46264    -0.14418   0.44591   1.00
C6       0.30222    -0.10763   0.36779   1.00
H2       0.42342    -0.07722   0.43785   1.00
H2       0.27974    -0.18516   0.39064   1.00
C6       0.44493    -0.20597   0.45989   1.00
C6       0.28382    -0.05203   0.36246   1.00
C6       0.47719    -0.15993   0.42421   1.00
C6       0.38071    -0.07594   0.36719   1.00
C6       0.52910    -0.08239   0.45415   1.00
C6       0.27106    -0.16337   0.35110   1.00
H2       0.43329    -0.19690   0.47527   1.00
H2       0.22876    -0.07253   0.36308   1.00
H2       0.40099    -0.25234   0.45427   1.00
H2       0.30768    -0.00909   0.37290   1.00
H2       0.48740    -0.21575   0.46084   1.00
H2       0.30104    -0.03202   0.34722   1.00
H2       0.52071    -0.16822   0.42412   1.00
H2       0.40071    -0.05676   0.35207   1.00
H2       0.43350    -0.20587   0.41822   1.00
H2       0.40555    -0.03323   0.37771   1.00
H2       0.48841    -0.11778   0.41396   1.00
H2       0.39513    -0.11370   0.37131   1.00
H2       0.52178    -0.06957   0.46956   1.00
H2       0.21560    -0.18695   0.35073   1.00
H2       0.57092    -0.09329   0.45451   1.00
H2       0.29034    -0.14201   0.33609   1.00
H2       0.54504    -0.03742   0.44466   1.00
H2       0.28348    -0.20349   0.35379   1.00
C4       0.35311    0.16587    0.03292   1.00
C4       0.29956    0.14022    0.04761   1.00
C3       0.36750    0.12218    0.02094   1.00
C3       0.25224    0.06926    0.04986   1.00
C3       0.39442    0.23781    0.02990   1.00
C3       0.29221    0.18658    0.06066   1.00
C2       0.45921    0.21752    0.00250   1.00
C2       0.19330    0.08805    0.07798   1.00
C3       0.41867    0.14707    0.00612   1.00
C3       0.20091    0.04382    0.06463   1.00
C3       0.44578    0.26107    0.01457   1.00
C3       0.23949    0.15857    0.07559   1.00
H1       0.34179    0.07067    0.02268   1.00
H1       0.25287    0.03344    0.04071   1.00
C5       0.38424    0.28444    0.04209   1.00
C5       0.33651    0.25875    0.05856   1.00
H1       0.42633    0.11289    -0.00207   1.00
H1       0.16857    -0.00793   0.06553   1.00
H1       0.47588    0.31183    0.01189   1.00
H1       0.23296    0.18987    0.08524   1.00
C6       0.42334    0.35992    0.03728   1.00
C6       0.33287    0.30674    0.07384   1.00
H2       0.42325    0.36679    0.02092   1.00
H2       0.32903    0.28618    0.08903   1.00
H2       0.39663    0.38566    0.04261   1.00
H2       0.38075    0.35471    0.07477   1.00
C6       0.49754    0.39718    0.04613   1.00
C6       0.27375    0.32199    0.06945   1.00
H2       0.52150    0.36632    0.04336   1.00
H2       0.22731    0.27456    0.06557   1.00
C6       0.54752    0.47120    0.03843   1.00
C6       0.25544    0.35825    0.08650   1.00
H2       0.49358    0.39883    0.06261   1.00
H2       0.28718    0.35329    0.05576   1.00
C6       0.56465    0.47199    0.01561   1.00
C6       0.22532    0.31220    0.10548   1.00
C6       0.51822    0.51925    0.04196   1.00
C6       0.31823    0.42680    0.09287   1.00
C6       0.61532    0.50005    0.05047   1.00
C6       0.20034    0.37363    0.07821   1.00
H2       0.58443    0.43768    0.01256   1.00
H2       0.18153    0.26292    0.10144   1.00
H2       0.51986    0.45625    0.00612   1.00
H2       0.26287    0.30277    0.11284   1.00
H2       0.60309    0.52303    0.01074   1.00
H2       0.20835    0.33595    0.11670   1.00
H2       0.55540    0.57169    0.03789   1.00
H2       0.30390    0.45394    0.10369   1.00
H2       0.47289    0.50392    0.03273   1.00
H2       0.35677    0.41849    0.10009   1.00
H2       0.50439    0.51853    0.05784   1.00
H2       0.34128    0.45964    0.07971   1.00
H2       0.63857    0.46830    0.04832   1.00
H2       0.15450    0.32671    0.07369   1.00
H2       0.65216    0.55163    0.04553   1.00
H2       0.18549    0.39861    0.08965   1.00
H2       0.60679    0.50208    0.06669   1.00
H2       0.21908    0.40714    0.06501   1.00
C4       0.81463    0.64614    0.03317   1.00
C4       0.84240    0.69908    0.04806   1.00
C3       0.77154    0.64472    0.01720   1.00
C3       0.83497    0.75785    0.04680   1.00
C3       0.82990    0.59208    0.03407   1.00
C3       0.87925    0.69395    0.06494   1.00
C2       0.76114    0.54093    0.00248   1.00
C2       0.89565    0.80455    0.07867   1.00
C3       0.74583    0.59397    0.00225   1.00
C3       0.86044    0.80888    0.06167   1.00
C3       0.80301    0.54157    0.01849   1.00
C3       0.90405    0.74683    0.07981   1.00
H1       0.75666    0.68014    0.01595   1.00
H1       0.81136    0.76613    0.03493   1.00
C5       0.87064    0.58920    0.05028   1.00
C5       0.89085    0.63740    0.06658   1.00
H1       0.71526    0.59598    -0.00892   1.00
H1       0.85315    0.84985    0.05992   1.00
H1       0.81313    0.50260    0.01853   1.00
H1       0.93009    0.74475    0.09209   1.00
C6       0.89239    0.53593    0.04985   1.00
C6       0.92350    0.62889    0.08557   1.00
H2       0.90896    0.53291    0.03456   1.00
H2       0.90090    0.63876    0.09880   1.00
H2       0.93879    0.55194    0.05852   1.00
H2       0.90958    0.57600    0.08797   1.00
C6       0.83584    0.46439    0.05770   1.00
C6       1.00319    0.67416    0.08561   1.00
H2       0.78658    0.45224    0.05122   1.00
H2       1.01796    0.72548    0.08032   1.00
C6       0.84647    0.40214    0.05378   1.00
C6       1.04115    0.68124    0.10610   1.00
H2       0.83049    0.46855    0.07402   1.00
H2       1.02305    0.65352    0.07424   1.00
C6       0.84367    0.38577    0.03083   1.00
C6       1.02401    0.72025    0.12225   1.00
C6       0.91497    0.41427    0.06269   1.00
C6       1.02403    0.61078    0.11472   1.00
C6       0.78794    0.33845    0.06436   1.00
C6       1.11916    0.72281    0.10217   1.00
H2       0.79635    0.37803    0.02401   1.00
H2       1.03449    0.76982    0.11651   1.00
H2       0.88604    0.42684    0.02263   1.00
H2       0.97055    0.69177    0.12667   1.00
H2       0.84638    0.33954    0.02835   1.00
H2       1.05425    0.72906    0.13597   1.00
H2       0.91966    0.36879    0.06117   1.00
H2       1.05440    0.61644    0.12820   1.00
H2       0.95809    0.45570    0.05480   1.00
H2       0.97049    0.58117    0.11905   1.00
H2       0.91886    0.42730    0.07875   1.00
H2       1.03429    0.58167    0.10348   1.00
H2       0.73833    0.32718    0.05845   1.00
H2       1.13411    0.77343    0.09626   1.00
H2       0.79289    0.29342    0.06194   1.00
H2       1.14796    0.72953    0.11610   1.00
H2       0.78808    0.34633    0.08069   1.00
H2       1.13469    0.69714    0.09118   1.00
C4       -0.17467   0.18615    0.03538   1.00
C4       -0.14870   0.16111    0.05085   1.00
C3       -0.19315   0.15576    0.01578   1.00
C3       -0.14613   0.09986    0.04856   1.00
C3       -0.18271   0.24381    0.03937   1.00
C3       -0.12423   0.19802    0.06944   1.00
C2       -0.23033   0.23466    0.00439   1.00
C2       -0.09310   0.11218    0.08173   1.00
C3       -0.22046   0.17896    0.00077   1.00
C3       -0.11890   0.07622    0.06346   1.00
C3       -0.21105   0.26562    0.02372   1.00
C3       -0.09655   0.17242    0.08419   1.00
H1       -0.18683   0.11605    0.01160   1.00
H1       -0.16458   0.06977    0.03606   1.00
C5       -0.16232   0.27830    0.05853   1.00
C5       -0.12812   0.25847    0.07298   1.00
H1       -0.23302   0.15467    -0.01303   1.00
H1       -0.11826   0.03183    0.06085   1.00
H1       -0.21798   0.30613    0.02604   1.00
H1       -0.07822   0.19749    0.09755   1.00
C6       -0.17781   0.33456    0.06332   1.00
C6       -0.09549   0.30092    0.09176   1.00
H2       -0.22967   0.31869    0.05850   1.00
H2       -0.04553   0.30584    0.09397   1.00
H2       -0.18092   0.34064    0.07957   1.00
H2       -0.08214   0.35374    0.08958   1.00
C6       -0.12489   0.40510    0.05393   1.00
C6       -0.14112   0.27234    0.11118   1.00
H2       -0.11394   0.39782    0.03827   1.00
H2       -0.16294   0.21706    0.11189   1.00
C6       -0.14365   0.46293    0.05400   1.00
C6       -0.10705   0.30267    0.13216   1.00
H2       -0.07678   0.42359    0.06206   1.00
H2       -0.18466   0.28019    0.10934   1.00
C6       -0.20548   0.44524    0.04005   1.00
C6       -0.05151   0.28418    0.13748   1.00
C6       -0.15926   0.47762    0.07570   1.00
C6       -0.07526   0.38117    0.13273   1.00
C6       -0.08183   0.52929    0.04574   1.00
C6       -0.16273   0.27165    0.14888   1.00
H2       -0.19650   0.43350    0.02467   1.00
H2       -0.07208   0.22910    0.13689   1.00
H2       -0.25186   0.40137    0.04570   1.00
H2       -0.00861   0.30793    0.12702   1.00
H2       -0.21518   0.48776    0.03909   1.00
H2       -0.03142   0.30145    0.15272   1.00
H2       -0.16747   0.52118    0.07579   1.00
H2       -0.05599   0.40122    0.14784   1.00
H2       -0.20521   0.43399    0.08172   1.00
H2       -0.03258   0.40590    0.12220   1.00
H2       -0.11708   0.48882    0.08595   1.00
H2       -0.11297   0.39565    0.12862   1.00
H2       -0.06911   0.52188    0.03032   1.00
H2       -0.18638   0.21618    0.14927   1.00
H2       -0.09265   0.57117    0.04536   1.00
H2       -0.14128   0.29098    0.16387   1.00
H2       -0.03683   0.54522    0.05521   1.00
H2       -0.20280   0.28414    0.14619   1.00
C4       0.49779    0.96888    0.86978   1.00
C4       0.52291    1.02042    0.88510   1.00
C3       0.53858    0.94356    0.86121   1.00
C3       0.58785    1.04506    0.89441   1.00
C3       0.42943    0.94107    0.86256   1.00
C3       0.48217    1.04894    0.89156   1.00
C2       0.44601    0.86226    0.83952   1.00
C2       0.57517    1.12703    0.91536   1.00
C3       0.51349    0.89165    0.84662   1.00
C3       0.61344    1.09696    0.90901   1.00
C3       0.40572    0.88801    0.84776   1.00
C3       0.51026    1.10197    0.90638   1.00
H1       0.58826    0.96236    0.86510   1.00
H1       0.61871    1.02574    0.89109   1.00
C5       0.38686    0.96650    0.86999   1.00
C5       0.41519    1.02420    0.88335   1.00
H1       0.54540    0.87545    0.84109   1.00
H1       0.66077    1.11266    0.91509   1.00
H1       0.35727    0.86663    0.84236   1.00
H1       0.48303    1.12383    0.91126   1.00
C6       0.31252    0.93172    0.86384   1.00
C6       0.37566    1.05972    0.88871   1.00
H2       0.29101    0.87666    0.86467   1.00
H2       0.40979    1.11470    0.88797   1.00
H2       0.28184    0.93983    0.87496   1.00
H2       0.33837    1.05205    0.87711   1.00
C6       0.30101    0.95456    0.84246   1.00
C6       0.33874    1.03719    0.90975   1.00
H2       0.33863    0.95605    0.83176   1.00
H2       0.37332    1.03524    0.92095   1.00
C6       0.22884    0.91152    0.83259   1.00
C6       0.30922    1.08088    0.91890   1.00
H2       0.31232    1.00731    0.84374   1.00
H2       0.29705    0.98464    0.90825   1.00
C6       0.21318    0.83838    0.82723   1.00
C6       0.36661    1.15375    0.92456   1.00
C6       0.17187    0.90720    0.84660   1.00
C6       0.25866    1.08590    0.90414   1.00
C6       0.22734    0.94674    0.81255   1.00
C6       0.26994    1.04593    0.93866   1.00
H2       0.25308    0.83967    0.81761   1.00
H2       0.40380    1.15197    0.93472   1.00
H2       0.20928    0.80918    0.84078   1.00
H2       0.39372    1.18281    0.91117   1.00
H2       0.16491    0.81038    0.81910   1.00
H2       0.34590    1.18220    0.93220   1.00
H2       0.12242    0.88132    0.83901   1.00
H2       0.23472    1.11225    0.91122   1.00
H2       0.16760    0.87869    0.86037   1.00
H2       0.28473    1.11427    0.89052   1.00
H2       0.18241    0.95804    0.85095   1.00
H2       0.21850    1.03525    0.89958   1.00
H2       0.26624    0.95044    0.80200   1.00
H2       0.30358    1.04176    0.94972   1.00
H2       0.17797    0.91826    0.80500   1.00
H2       0.24869    1.07487    0.94571   1.00
H2       0.23670    0.99821    0.81539   1.00
H2       0.22779    0.99467    0.93559   1.00
C4       0.02099    0.51816    0.86665   1.00
C4       -0.03363   0.49238    0.88099   1.00
C3       0.07345    0.50090    0.86739   1.00
C3       -0.04361   0.44211    0.89570   1.00
C3       0.02415    0.56305    0.85090   1.00
C3       -0.08063   0.51716    0.88080   1.00
C2       0.12964    0.56758    0.83709   1.00
C2       -0.14208   0.44265    0.91063   1.00
C3       0.12597    0.52451    0.85301   1.00
C3       -0.09592   0.41818    0.91015   1.00
C3       0.07828    0.58567    0.83650   1.00
C3       -0.13299   0.49175    0.89585   1.00
H1       0.07585    0.47107    0.87851   1.00
H1       -0.01364   0.42051    0.89634   1.00
C5       -0.02558   0.58452    0.84988   1.00
C5       -0.07491   0.56566    0.86582   1.00
H1       0.16211    0.50998    0.85434   1.00
H1       -0.10022   0.38210    0.92040   1.00
H1       0.08198    0.61727    0.82500   1.00
H1       -0.16710   0.50848    0.89629   1.00
C6       -0.02586   0.62609    0.83193   1.00
C6       -0.12038   0.59682    0.86713   1.00
H2       -0.01850   0.60438    0.81806   1.00
H2       -0.12267   0.61046    0.88285   1.00
H2       -0.07603   0.62006    0.82943   1.00
H2       -0.09753   0.64626    0.85971   1.00
C6       0.02765    0.70396    0.83387   1.00
C6       -0.19336   0.54988    0.85812   1.00
H2       0.07611    0.71027    0.83928   1.00
H2       -0.21281   0.49745    0.86325   1.00
C6       0.04263    0.74921    0.81449   1.00
C6       -0.24920   0.56958    0.86265   1.00
H2       0.01026    0.72494    0.84587   1.00
H2       -0.18818   0.54830    0.84168   1.00
C6       0.07786    0.72971    0.79771   1.00
C6       -0.26766   0.56242    0.88552   1.00
C6       -0.02326   0.74428    0.80580   1.00
C6       -0.22651   0.64318    0.85562   1.00
C6       0.09197    0.82471    0.82037   1.00
C6       -0.31492   0.52012    0.85081   1.00
H2       0.12402    0.73161    0.80346   1.00
H2       -0.28284   0.51129    0.89103   1.00
H2       0.04429    0.67847    0.79197   1.00
H2       -0.22476   0.59883    0.89466   1.00
H2       0.09235    0.76453    0.78484   1.00
H2       -0.30986   0.57166    0.88831   1.00
H2       -0.01167   0.77965    0.79319   1.00
H2       -0.26760   0.65469    0.85751   1.00
H2       -0.05789   0.69311    0.80014   1.00
H2       -0.18312   0.68042    0.86447   1.00
H2       -0.04983   0.75638    0.81743   1.00
H2       -0.21185   0.65000    0.83966   1.00
H2       0.13974    0.83115    0.82640   1.00
H2       -0.33355   0.46734    0.85537   1.00
H2       0.10435    0.85836    0.80726   1.00
H2       -0.35568   0.53157    0.85360   1.00
H2       0.06937    0.84196    0.83189   1.00
H2       -0.30550   0.52381    0.83450   1.00
C4       0.48100    0.50133    0.86644   1.00
C4       0.50627    0.47210    0.88081   1.00
C3       0.50756    0.57302    0.86492   1.00
C3       0.56442    0.51262    0.89316   1.00
C3       0.42704    0.45799    0.85298   1.00
C3       0.47281    0.39966    0.88310   1.00
C2       0.43222    0.56072    0.83672   1.00
C2       0.55544    0.41322    0.91057   1.00
C3       0.48424    0.60195    0.85046   1.00
C3       0.58815    0.48423    0.90766   1.00
C3       0.40500    0.48950    0.83840   1.00
C3       0.49836    0.37279    0.89813   1.00
H1       0.54439    0.60686    0.87439   1.00
H1       0.59214    0.56426    0.89193   1.00
C5       0.39630    0.38529    0.85436   1.00
C5       0.41577    0.35609    0.87051   1.00
H1       0.50570    0.65403    0.85009   1.00
H1       0.63019    0.51625    0.91615   1.00
H1       0.36707    0.46041    0.82848   1.00
H1       0.47565    0.32157    0.90030   1.00
C6       0.34438    0.34042    0.83865   1.00
C6       0.37644    0.28011    0.87456   1.00
H2       0.36240    0.36236    0.82365   1.00
H2       0.36854    0.27157    0.89084   1.00
H2       0.34203    0.29147    0.83721   1.00
H2       0.32432    0.25691    0.86904   1.00
C6       0.27093    0.32791    0.84298   1.00
C6       0.41109    0.24123    0.86526   1.00
H2       0.27398    0.37592    0.84736   1.00
H2       0.46589    0.26983    0.86828   1.00
C6       0.21679    0.29539    0.82563   1.00
C6       0.38373    0.16582    0.87220   1.00
H2       0.25134    0.29521    0.85635   1.00
H2       0.40633    0.24167    0.84878   1.00
C6       0.23544    0.34385    0.80713   1.00
C6       0.39853    0.16164    0.89497   1.00
C6       0.20819    0.22628    0.81855   1.00
C6       0.30618    0.12081    0.86828   1.00
C6       0.14694    0.28212    0.83386   1.00
C6       0.42091    0.13580    0.85980   1.00
H2       0.24297    0.39353    0.81169   1.00
H2       0.45278    0.19378    0.89831   1.00
H2       0.28205    0.35206    0.79981   1.00
H2       0.37051    0.17807    0.90467   1.00
H2       0.19513    0.32279    0.79573   1.00
H2       0.38357    0.10950    0.89932   1.00
H2       0.16698    0.20174    0.80750   1.00
H2       0.28858    0.06745    0.87181   1.00
H2       0.25461    0.23334    0.81134   1.00
H2       0.27722    0.13689    0.87771   1.00
H2       0.19644    0.19168    0.83136   1.00
H2       0.29419    0.12397    0.85243   1.00
H2       0.15003    0.32954    0.83888   1.00
H2       0.47595    0.16538    0.86220   1.00
H2       0.10745    0.25977    0.82222   1.00
H2       0.40382    0.08320    0.86421   1.00
H2       0.13030    0.24707    0.84671   1.00
H2       0.41128    0.13607    0.84359   1.00
C4       0.30234    0.16206    0.29690   1.00
C4       0.35442    0.18699    0.28174   1.00
C3       0.26258    0.19352    0.30092   1.00
C3       0.36552    0.24051    0.26815   1.00
C3       0.28888    0.10353    0.30864   1.00
C3       0.39746    0.15783    0.27987   1.00
C2       0.19475    0.10969    0.32685   1.00
C2       0.46188    0.23975    0.25175   1.00
C3       0.21018    0.16804    0.31536   1.00
C3       0.41778    0.26640    0.25366   1.00
C3       0.23482    0.07897    0.32312   1.00
C3       0.45034    0.18591    0.26500   1.00
H1       0.27065    0.23654    0.29366   1.00
H1       0.33561    0.26223    0.26813   1.00
C5       0.32912    0.07138    0.30587   1.00
C5       0.38692    0.10193    0.29256   1.00
H1       0.18318    0.19291    0.31749   1.00
H1       0.42330    0.30523    0.24437   1.00
H1       0.22340    0.03721    0.33166   1.00
H1       0.48227    0.16685    0.26331   1.00
C6       0.30966    0.00536    0.31683   1.00
C6       0.43725    0.07642    0.29190   1.00
H2       0.25460    -0.02808   0.31591   1.00
H2       0.48889    0.12001    0.29168   1.00
H2       0.32802    -0.02440   0.30889   1.00
H2       0.43732    0.05155    0.30600   1.00
C6       0.33549    0.01628    0.33932   1.00
C6       0.42455    0.02658    0.27380   1.00
H2       0.32594    0.05408    0.34660   1.00
H2       0.41453    0.04681    0.25998   1.00
C6       0.30590    -0.04791   0.35341   1.00
C6       0.48171    0.00903    0.26891   1.00
H2       0.39093    0.03943    0.33897   1.00
H2       0.37734    -0.02100   0.27690   1.00
C6       0.22860    -0.07769   0.35738   1.00
C6       0.54770    0.07235    0.26117   1.00
C6       0.31782    -0.10433   0.34444   1.00
C6       0.49894    -0.02097   0.28761   1.00
C6       0.34291    -0.02627   0.37421   1.00
C6       0.45576    -0.04539   0.25180   1.00
H2       0.21835    -0.03879   0.36342   1.00
H2       0.53705    0.09541    0.24815   1.00
H2       0.19892    -0.09782   0.34354   1.00
H2       0.57108    0.11114    0.27290   1.00
H2       0.20950    -0.11941   0.36831   1.00
H2       0.58549    0.05864    0.25647   1.00
H2       0.30144    -0.14676   0.35502   1.00
H2       0.53522    -0.03754   0.28367   1.00
H2       0.28903    -0.12470   0.33045   1.00
H2       0.52182    0.01692    0.29963   1.00
H2       0.37172    -0.08431   0.34111   1.00
H2       0.45307    -0.06480   0.29363   1.00
H2       0.33549    0.01310    0.38131   1.00
H2       0.44351    -0.02645   0.23813   1.00
H2       0.32364    -0.06939   0.38465   1.00
H2       0.49417    -0.05902   0.24775   1.00
H2       0.39764    -0.00605   0.37246   1.00
H2       0.40992    -0.09195   0.25651   1.00
C4       0.86532    0.69659    0.29728   1.00
C4       0.84026    0.64558    0.28181   1.00
C3       0.91045    0.69946    0.31281   1.00
C3       0.86407    0.59841    0.27951   1.00
C3       0.84491    0.74701    0.29749   1.00
C3       0.78952    0.64087    0.26794   1.00
C2       0.91867    0.80171    0.32800   1.00
C2       0.78722    0.54026    0.25115   1.00
C3       0.93665    0.75056    0.32765   1.00
C3       0.83820    0.54710    0.26473   1.00
C3       0.87305    0.79841    0.31281   1.00
C3       0.76424    0.58765    0.25317   1.00
H1       0.92545    0.66414    0.31403   1.00
H1       0.90159    0.59999    0.28837   1.00
C5       0.79736    0.74507    0.28276   1.00
C5       0.76563    0.68872    0.26895   1.00
H1       0.96921    0.74996    0.33839   1.00
H1       0.85732    0.51450    0.26392   1.00
H1       0.86012    0.83540    0.31337   1.00
H1       0.72781    0.58236    0.24314   1.00
C6       0.78187    0.80277    0.28183   1.00
C6       0.70687    0.67872    0.25563   1.00
H2       0.82936    0.85117    0.28324   1.00
H2       0.66761    0.62504    0.25580   1.00
H2       0.76462    0.80741    0.26684   1.00
H2       0.67978    0.70257    0.26211   1.00
C6       0.72791    0.79604    0.29794   1.00
C6       0.72924    0.70575    0.23346   1.00
H2       0.73949    0.78150    0.31258   1.00
H2       0.76474    0.69004    0.22786   1.00
C6       0.71911    0.85959    0.30146   1.00
C6       0.67172    0.68482    0.21721   1.00
H2       0.67858    0.75314    0.29346   1.00
H2       0.75876    0.76138    0.23413   1.00
C6       0.78391    0.91987    0.31097   1.00
C6       0.63414    0.60705    0.21293   1.00
C6       0.70163    0.88359    0.28149   1.00
C6       0.61909    0.70586    0.22372   1.00
C6       0.65931    0.83945    0.31653   1.00
C6       0.70493    0.72204    0.19704   1.00
H2       0.79826    0.90426    0.32493   1.00
H2       0.67006    0.59035    0.20861   1.00
H2       0.82712    0.93942    0.30062   1.00
H2       0.60607    0.57777    0.22618   1.00
H2       0.77562    0.96215    0.31466   1.00
H2       0.59745    0.59366    0.20060   1.00
H2       0.69081    0.92473    0.28434   1.00
H2       0.58204    0.69548    0.21168   1.00
H2       0.74406    0.90276    0.27084   1.00
H2       0.59087    0.67756    0.23710   1.00
H2       0.65699    0.84169    0.27426   1.00
H2       0.64441    0.76017    0.22724   1.00
H2       0.66943    0.82274    0.33100   1.00
H2       0.74212    0.70835    0.19165   1.00
H2       0.65143    0.88241    0.31958   1.00
H2       0.66675    0.70867    0.18514   1.00
H2       0.61171    0.79794    0.31048   1.00
H2       0.73115    0.77728    0.19898   1.00
C4       0.83170    0.13491    0.29722   1.00
C4       0.80585    0.16010    0.28175   1.00
C3       0.78879    0.08713    0.31214   1.00
C3       0.73471    0.13404    0.27881   1.00
C3       0.90307    0.15788    0.29805   1.00
C3       0.85217    0.21332    0.26856   1.00
C2       0.88342    0.08137    0.32790   1.00
C2       0.75361    0.21330    0.25113   1.00
C3       0.81368    0.06085    0.32696   1.00
C3       0.70927    0.15996    0.26405   1.00
C3       0.92631    0.12958    0.31332   1.00
C3       0.82420    0.23856    0.25379   1.00
H1       0.73793    0.07015    0.31291   1.00
H1       0.69867    0.09477    0.28716   1.00
C5       0.94920    0.20807    0.28397   1.00
C5       0.92422    0.23964    0.27023   1.00
H1       0.78004    0.02632    0.33723   1.00
H1       0.65742    0.13915    0.26275   1.00
H1       0.97663    0.14430    0.31431   1.00
H1       0.85552    0.27669    0.24422   1.00
C6       1.02333    0.22649    0.28365   1.00
C6       0.97293    0.30075    0.25765   1.00
H2       1.02619    0.17996    0.28474   1.00
H2       0.95645    0.33846    0.25800   1.00
H2       1.04661    0.24606    0.26894   1.00
H2       1.02298    0.32865    0.26466   1.00
C6       1.06733    0.27933    0.30044   1.00
C6       0.98117    0.28173    0.23538   1.00
H2       1.03952    0.26515    0.31481   1.00
H2       0.93110    0.24549    0.22919   1.00
C6       1.14040    0.29065    0.30451   1.00
C6       1.01781    0.34144    0.21979   1.00
H2       1.07223    0.32834    0.29635   1.00
H2       1.00905    0.25393    0.23602   1.00
C6       1.13756    0.22601    0.31353   1.00
C6       0.97562    0.37693    0.21549   1.00
C6       1.18423    0.31190    0.28496   1.00
C6       1.08997    0.39528    0.22715   1.00
C6       1.17654    0.34900    0.32025   1.00
C6       1.02567    0.31157    0.19943   1.00
H2       1.10603    0.20903    0.32718   1.00
H2       0.92399    0.34006    0.21057   1.00
H2       1.11649    0.18400    0.30274   1.00
H2       0.97166    0.40273    0.22892   1.00
H2       1.18840    0.23586    0.31762   1.00
H2       0.99920    0.41525    0.20359   1.00
H2       1.23647    0.32438    0.28824   1.00
H2       1.11691    0.43406    0.21556   1.00
H2       1.16356    0.27070    0.27386   1.00
H2       1.08712    0.42126    0.24072   1.00
H2       1.18588    0.35649    0.27806   1.00
H2       1.12028    0.37138    0.23069   1.00
H2       1.14796    0.33623    0.33445   1.00
H2       0.97598    0.27367    0.19344   1.00
H2       1.22773    0.35853    0.32370   1.00
H2       1.05065    0.35135    0.18797   1.00
H2       1.18134    0.39649    0.31457   1.00
H2       1.05623    0.28697    0.20139   1.00
C4       0.82857    0.68661    0.80039   1.00
C4       0.80171    0.63226    0.78596   1.00
C3       0.79597    0.72504    0.80484   1.00
C3       0.73692    0.60787    0.77656   1.00
C3       0.89041    0.70398    0.81090   1.00
C3       0.84036    0.60041    0.78055   1.00
C2       0.88105    0.79433    0.83030   1.00
C2       0.74879    0.52460    0.75602   1.00
C3       0.82112    0.77704    0.81940   1.00
C3       0.71131    0.55593    0.76198   1.00
C3       0.91412    0.75703    0.82570   1.00
C3       0.81262    0.54794    0.76554   1.00
H1       0.75310    0.71714    0.79752   1.00
H1       0.70561    0.62647    0.78012   1.00
C5       0.92705    0.66903    0.80645   1.00
C5       0.90463    0.62081    0.79011   1.00
H1       0.79508    0.80266    0.82197   1.00
H1       0.66435    0.54084    0.75571   1.00
H1       0.95764    0.77053    0.83358   1.00
H1       0.83880    0.52439    0.76120   1.00
C6       0.98832    0.68289    0.81918   1.00
C6       0.94824    0.59182    0.78271   1.00
H2       0.97655    0.68465    0.83512   1.00
H2       0.94839    0.59174    0.76618   1.00
H2       0.99729    0.64001    0.81900   1.00
H2       1.00189    0.62568    0.78607   1.00
C6       1.05533    0.74894    0.81262   1.00
C6       0.92584    0.51935    0.79154   1.00
H2       1.04436    0.79012    0.80989   1.00
H2       0.87031    0.48776    0.79089   1.00
C6       1.11794    0.77666    0.82730   1.00
C6       0.95690    0.47813    0.78161   1.00
H2       1.07071    0.73892    0.79789   1.00
H2       0.93845    0.52533    0.80768   1.00
C6       1.10405    0.80248    0.84755   1.00
C6       0.93235    0.45785    0.75941   1.00
C6       1.13800    0.72188    0.83188   1.00
C6       1.03588    0.51863    0.78206   1.00
C6       1.17977    0.83806    0.81696   1.00
C6       0.93263    0.41131    0.79385   1.00
H2       1.08866    0.84045    0.84482   1.00
H2       0.87673    0.43011    0.75854   1.00
H2       1.06379    0.76096    0.85623   1.00
H2       0.95123    0.50245    0.74965   1.00
H2       1.14951    0.82599    0.85709   1.00
H2       0.95042    0.42518    0.75310   1.00
H2       1.18455    0.74312    0.84093   1.00
H2       1.05693    0.48764    0.77644   1.00
H2       1.09800    0.67949    0.84040   1.00
H2       1.05580    0.56391    0.77251   1.00
H2       1.14668    0.70180    0.81785   1.00
H2       1.05449    0.53477    0.79747   1.00
H2       1.16852    0.87862    0.81359   1.00
H2       0.87707    0.38038    0.79384   1.00
H2       1.22476    0.85953    0.82671   1.00
H2       0.95269    0.38046    0.78741   1.00
H2       1.19299    0.82275    0.80275   1.00
H2       0.94961    0.42227    0.80960   1.00
C4       0.30393    0.13423    0.79745   1.00
C4       0.35704    0.15744    0.78266   1.00
C3       0.24418    0.13913    0.79451   1.00
C3       0.35096    0.18047    0.76307   1.00
C3       0.30998    0.10495    0.81600   1.00
C3       0.41891    0.15788    0.78736   1.00
C2       0.19496    0.08426    0.82692   1.00
C2       0.46571    0.20753    0.75308   1.00
C3       0.19115    0.11464    0.80872   1.00
C3       0.40369    0.20509    0.74875   1.00
C3       0.25465    0.08028    0.83004   1.00
C3       0.47152    0.18371    0.77239   1.00
H1       0.23727    0.16129    0.78201   1.00
H1       0.30774    0.17959    0.75840   1.00
C5       0.37019    0.10124    0.82020   1.00
C5       0.42690    0.13264    0.80651   1.00
H1       0.14928    0.11944    0.80566   1.00
H1       0.39622    0.22123    0.73492   1.00
H1       0.25686    0.05871    0.84333   1.00
H1       0.51642    0.18528    0.77522   1.00
C6       0.37281    0.06365    0.83886   1.00
C6       0.49517    0.14014    0.81211   1.00
H2       0.32457    0.01603    0.84032   1.00
H2       0.53555    0.19110    0.80796   1.00
H2       0.40861    0.04532    0.83700   1.00
H2       0.50169    0.14052    0.82845   1.00
C6       0.39105    0.10749    0.85870   1.00
C6       0.50708    0.08351    0.80259   1.00
H2       0.36206    0.13421    0.85921   1.00
H2       0.49112    0.07587    0.78670   1.00
C6       0.38047    0.06970    0.87943   1.00
C6       0.58098    0.09443    0.80354   1.00
H2       0.44445    0.14759    0.85764   1.00
H2       0.47260    0.03538    0.81013   1.00
C6       0.30395    0.01918    0.88366   1.00
C6       0.63151    0.15598    0.79041   1.00
C6       0.42053    0.03081    0.88027   1.00
C6       0.60785    0.10490    0.82561   1.00
C6       0.40738    0.12353    0.89670   1.00
C6       0.57945    0.02982    0.79496   1.00
H2       0.27406    0.04486    0.88285   1.00
H2       0.61341    0.15067    0.77479   1.00
H2       0.28272    -0.02256   0.87277   1.00
H2       0.63829    0.20385    0.79635   1.00
H2       0.29671    -0.00336   0.89873   1.00
H2       0.68170    0.16029    0.79004   1.00
H2       0.41677    0.00874    0.89526   1.00
H2       0.65731    0.10758    0.82626   1.00
H2       0.40045    -0.01082   0.86932   1.00
H2       0.61436    0.15229    0.83192   1.00
H2       0.47436    0.06495    0.87691   1.00
H2       0.57247    0.06294    0.83528   1.00
H2       0.38020    0.15202    0.89691   1.00
H2       0.56147    0.02050    0.77928   1.00
H2       0.40068    0.09951    0.91153   1.00
H2       0.63012    0.03518    0.79518   1.00
H2       0.46161    0.15994    0.89478   1.00
H2       0.54563    -0.01525   0.80386   1.00
C4       0.86527    0.16862    0.79727   1.00
C4       0.84223    0.19842    0.78239   1.00
C3       0.85236    0.10042    0.79567   1.00
C3       0.81107    0.16478    0.76388   1.00
C3       0.90263    0.20774    0.81452   1.00
C3       0.85035    0.26440    0.78589   1.00
C2       0.91471    0.10940    0.82683   1.00
C2       0.79259    0.25718    0.75273   1.00
C3       0.87656    0.07171    0.80992   1.00
C3       0.78666    0.19300    0.74952   1.00
C3       0.92670    0.17674    0.82864   1.00
C3       0.82445    0.29119    0.77094   1.00
H1       0.82431    0.06881    0.78419   1.00
H1       0.80555    0.11880    0.76003   1.00
C5       0.91474    0.27569    0.81740   1.00
C5       0.88390    0.30198    0.80385   1.00
H1       0.86575    0.02234    0.80786   1.00
H1       0.76443    0.16603    0.73651   1.00
H1       0.95384    0.20309    0.84102   1.00
H1       0.82885    0.33774    0.77295   1.00
C6       0.96046    0.31898    0.83452   1.00
C6       0.88565    0.36839    0.80838   1.00
H2       1.00531    0.31306    0.83516   1.00
H2       0.83553    0.36215    0.80535   1.00
H2       0.98315    0.37311    0.83132   1.00
H2       0.89129    0.37974    0.82452   1.00
C6       0.92304    0.30324    0.85551   1.00
C6       0.94325    0.43078    0.79660   1.00
H2       0.89191    0.24807    0.85755   1.00
H2       0.94429    0.41641    0.78083   1.00
C6       0.96813    0.33346    0.87493   1.00
C6       0.94055    0.49854    0.79653   1.00
H2       0.88679    0.32170    0.85490   1.00
H2       0.99217    0.44159    0.80300   1.00
C6       1.01369    0.30135    0.87876   1.00
C6       0.87760    0.49044    0.78476   1.00
C6       1.01371    0.41198    0.87357   1.00
C6       0.93980    0.52359    0.81834   1.00
C6       0.92040    0.31676    0.89356   1.00
C6       1.00528    0.55452    0.78565   1.00
H2       0.98311    0.24580    0.87947   1.00
H2       0.87604    0.47173    0.76938   1.00
H2       1.05145    0.31464    0.86681   1.00
H2       0.83016    0.45479    0.79229   1.00
H2       1.04134    0.31919    0.89306   1.00
H2       0.87869    0.53904    0.78358   1.00
H2       1.04125    0.43303    0.88774   1.00
H2       0.94285    0.57324    0.81813   1.00
H2       1.05148    0.42638    0.86154   1.00
H2       0.89294    0.48819    0.82622   1.00
H2       0.98300    0.43576    0.87045   1.00
H2       0.98285    0.52835    0.82709   1.00
H2       0.88752    0.26175    0.89534   1.00
H2       1.00792    0.53964    0.77007   1.00
H2       0.94960    0.33648    0.90755   1.00
H2       1.00552    0.60282    0.78509   1.00
H2       0.88783    0.33927    0.89195   1.00
H2       1.05152    0.56358    0.79350   1.00
C4       0.02029    0.50118    0.36642   1.00
C4       -0.03280   0.47591    0.38126   1.00
C3       0.02469    0.45840    0.35136   1.00
C3       -0.08902   0.40796    0.38078   1.00
C3       0.07143    0.57176    0.36643   1.00
C3       -0.03048   0.51959    0.39728   1.00
C2       0.12571    0.55285    0.33579   1.00
C2       -0.13846   0.42374    0.41182   1.00
C3       0.07553    0.48338    0.33644   1.00
C3       -0.14011   0.38245    0.39563   1.00
C3       0.12213    0.59525    0.35091   1.00
C3       -0.08332   0.49152    0.41217   1.00
H1       -0.00849   0.40735    0.35080   1.00
H1       -0.09532   0.37466    0.36951   1.00
C5       0.07134    0.61675    0.38173   1.00
C5       0.02331    0.58933    0.39809   1.00
H1       0.07574    0.44994    0.32596   1.00
H1       -0.17916   0.33290    0.39446   1.00
H1       0.15908    0.64518    0.35033   1.00
H1       -0.08318   0.52085    0.42387   1.00
C6       0.12131    0.69253    0.38029   1.00
C6       0.02915    0.63281    0.41627   1.00
H2       0.12328    0.70898    0.36465   1.00
H2       0.02099    0.60313    0.43005   1.00
H2       0.10268    0.72221    0.38815   1.00
H2       0.08110    0.67432    0.41840   1.00
C6       0.19404    0.71314    0.38854   1.00
C6       -0.01984   0.66291    0.41513   1.00
H2       0.20910    0.67711    0.38298   1.00
H2       -0.07029   0.62334    0.41008   1.00
C6       0.25345    0.78688    0.38376   1.00
C6       -0.02941   0.69569    0.43487   1.00
H2       0.19020    0.70650    0.40500   1.00
H2       -0.00111   0.70138    0.40315   1.00
C6       0.26967    0.79712    0.36074   1.00
C6       -0.06608   0.64174    0.45175   1.00
C6       0.23710    0.84188    0.39135   1.00
C6       0.03965    0.75330    0.44308   1.00
C6       0.31869    0.79795    0.39486   1.00
C6       -0.07466   0.72733    0.42975   1.00
H2       0.28036    0.75835    0.35483   1.00
H2       -0.11456   0.59977    0.44632   1.00
H2       0.22730    0.79419    0.35210   1.00
H2       -0.03509   0.62035    0.45698   1.00
H2       0.31413    0.84695    0.35772   1.00
H2       -0.07674   0.66414    0.46491   1.00
H2       0.28070    0.89302    0.38925   1.00
H2       0.03202    0.77903    0.45596   1.00
H2       0.19432    0.83936    0.38301   1.00
H2       0.07173    0.73299    0.44821   1.00
H2       0.22409    0.83494    0.40744   1.00
H2       0.06718    0.79126    0.43134   1.00
H2       0.33292    0.76076    0.38988   1.00
H2       -0.12445   0.68854    0.42407   1.00
H2       0.36185    0.84872    0.39187   1.00
H2       -0.08321   0.75052    0.44313   1.00
H2       0.31090    0.79275    0.41125   1.00
H2       -0.05080   0.76686    0.41819   1.00
C4       0.48123    0.97951    0.36649   1.00
C4       0.50902    1.03247    0.38137   1.00
C3       0.43748    0.97763    0.35066   1.00
C3       0.50089    1.09085    0.38023   1.00
C3       0.49719    0.92591    0.36725   1.00
C3       0.54660    1.02778    0.39811   1.00
C2       0.42771    0.87426    0.33581   1.00
C2       0.56231    1.13798    0.41197   1.00
C3       0.41175    0.92686    0.33571   1.00
C3       0.52637    1.14189    0.39510   1.00
C3       0.47025    0.87537    0.35168   1.00
C3       0.57140    1.08065    0.41299   1.00
H1       0.42211    1.01269    0.34951   1.00
H1       0.47673    1.09882    0.36845   1.00
C5       0.53864    0.92349    0.38332   1.00
C5       0.55891    0.97166    0.39963   1.00
H1       0.38067    0.92853    0.32465   1.00
H1       0.51856    1.18257    0.39344   1.00
H1       0.48083    0.83671    0.35162   1.00
H1       0.59795    1.07888    0.42518   1.00
C6       0.56106    0.87074    0.38273   1.00
C6       0.59237    0.96356    0.41849   1.00
H2       0.57731    0.86790    0.36738   1.00
H2       0.56993    0.97315    0.43181   1.00
H2       0.60778    0.88717    0.39127   1.00
H2       0.57901    0.91081    0.42085   1.00
C6       0.50520    0.79898    0.39065   1.00
C6       0.67200    1.00944    0.41834   1.00
H2       0.45563    0.78637    0.38432   1.00
H2       0.68614    1.06063    0.41309   1.00
C6       0.51644    0.73717    0.38659   1.00
C6       0.71067    1.01690    0.43872   1.00
H2       0.50025    0.80308    0.40700   1.00
H2       0.69186    0.98911    0.40687   1.00
C6       0.51313    0.72085    0.36363   1.00
C6       0.69349    1.05553    0.45498   1.00
C6       0.58542    0.74998    0.39530   1.00
C6       0.69445    0.94665    0.44727   1.00
C6       0.45858    0.67321    0.39726   1.00
C6       0.78854    1.05907    0.43459   1.00
H2       0.46546    0.71264    0.35696   1.00
H2       0.70333    1.10494    0.44929   1.00
H2       0.55505    0.76214    0.35535   1.00
H2       0.64018    1.02664    0.45953   1.00
H2       0.51628    0.67489    0.36106   1.00
H2       0.72419    1.06463    0.46862   1.00
H2       0.59057    0.70479    0.39368   1.00
H2       0.72531    0.95261    0.46066   1.00
H2       0.62810    0.79165    0.38733   1.00
H2       0.64108    0.91663    0.45174   1.00
H2       0.58965    0.76300    0.41136   1.00
H2       0.70475    0.91779    0.43596   1.00
H2       0.40866    0.66148    0.39150   1.00
H2       0.80286    1.10958    0.42871   1.00
H2       0.46396    0.62848    0.39475   1.00
H2       0.81781    1.06608    0.44843   1.00
H2       0.45910    0.68108    0.41361   1.00
H2       0.80410    1.03370    0.42351   1.00
C4       0.49830    0.51878    0.36649   1.00
C4       0.52349    0.49099    0.38136   1.00
C3       0.54021    0.56265    0.35068   1.00
C3       0.59005    0.49925    0.38025   1.00
C3       0.42871    0.50270    0.36722   1.00
C3       0.48115    0.45327    0.39808   1.00
C2       0.44659    0.57231    0.33581   1.00
C2       0.57570    0.43770    0.41197   1.00
C3       0.51518    0.58839    0.33574   1.00
C3       0.61560    0.47376    0.39511   1.00
C3       0.40511    0.52965    0.35165   1.00
C3       0.50923    0.42848    0.41296   1.00
H1       0.59067    0.57811    0.34956   1.00
H1       0.62222    0.52351    0.36849   1.00
C5       0.38479    0.46112    0.38326   1.00
C5       0.41267    0.44083    0.39958   1.00
H1       0.54795    0.61956    0.32470   1.00
H1       0.66413    0.48167    0.39347   1.00
H1       0.35584    0.51898    0.35158   1.00
H1       0.48087    0.40184    0.42514   1.00
C6       0.30960    0.43858    0.38265   1.00
C6       0.37104    0.40722    0.41841   1.00
H2       0.29060    0.42239    0.36728   1.00
H2       0.40299    0.42964    0.43176   1.00
H2       0.27932    0.39180    0.39117   1.00
H2       0.33158    0.42049    0.42077   1.00
C6       0.29354    0.49431    0.39058   1.00
C6       0.33742    0.32761    0.41823   1.00
H2       0.33047    0.54394    0.38427   1.00
H2       0.37456    0.31358    0.41298   1.00
C6       0.22046    0.48296    0.38650   1.00
C6       0.30616    0.28881    0.43858   1.00
H2       0.30250    0.49918    0.40693   1.00
H2       0.29729    0.30776    0.40674   1.00
C6       0.20754    0.48636    0.36353   1.00
C6       0.36190    0.30600    0.45487   1.00
C6       0.16432    0.41389    0.39516   1.00
C6       0.25198    0.30486    0.44713   1.00
C6       0.21419    0.54069    0.39718   1.00
C6       0.27059    0.21097    0.43443   1.00
H2       0.24698    0.53410    0.35688   1.00
H2       0.40155    0.29627    0.44918   1.00
H2       0.20704    0.44452    0.35524   1.00
H2       0.38622    0.35928    0.45945   1.00
H2       0.15841    0.48313    0.36095   1.00
H2       0.34027    0.27521    0.46849   1.00
H2       0.11395    0.40865    0.39353   1.00
H2       0.22706    0.27391    0.46050   1.00
H2       0.16343    0.37129    0.38718   1.00
H2       0.27524    0.35821    0.45162   1.00
H2       0.17304    0.40959    0.41123   1.00
H2       0.21287    0.29455    0.43580   1.00
H2       0.25234    0.59067    0.39145   1.00
H2       0.30687    0.19677    0.42855   1.00
H2       0.16404    0.53523    0.39466   1.00
H2       0.24829    0.18161    0.44825   1.00
H2       0.22145    0.54010    0.41353   1.00
H2       0.22970    0.19540    0.42332   1.00
C4       0.16380    0.31233    0.20000   1.00
C4       0.19263    0.36695    0.21433   1.00
C3       0.09416    0.25969    0.20079   1.00
C3       0.15238    0.37674    0.22910   1.00
C3       0.20546    0.30935    0.18419   1.00
C3       0.26436    0.41415    0.21409   1.00
C2       0.10458    0.20367    0.17044   1.00
C2       0.25135    0.47542    0.24397   1.00
C3       0.06525    0.20716    0.18642   1.00
C3       0.18076    0.42907    0.24355   1.00
C3       0.17396    0.25521    0.16979   1.00
C3       0.29131    0.46651    0.22913   1.00
H1       0.06199    0.25717    0.21195   1.00
H1       0.10083    0.34663    0.22979   1.00
C5       0.27660    0.35927    0.18312   1.00
C5       0.30709    0.40862    0.19904   1.00
H1       0.01464    0.17089    0.18778   1.00
H1       0.14900    0.43322    0.25385   1.00
H1       0.20181    0.25163    0.15825   1.00
H1       0.34213    0.50075    0.22954   1.00
C6       0.31834    0.35972    0.16511   1.00
C6       0.38371    0.45431    0.20029   1.00
H2       0.28909    0.35226    0.15127   1.00
H2       0.39983    0.45665    0.21599   1.00
H2       0.36234    0.40997    0.16258   1.00
H2       0.41036    0.43161    0.19282   1.00
C6       0.34298    0.30642    0.16699   1.00
C6       0.40941    0.52724    0.19129   1.00
H2       0.30100    0.25788    0.17242   1.00
H2       0.37634    0.54652    0.19648   1.00
C6       0.37317    0.29160    0.14755   1.00
C6       0.48492    0.58327    0.19576   1.00
H2       0.38148    0.32392    0.17895   1.00
H2       0.40249    0.52205    0.17486   1.00
C6       0.31829    0.25622    0.13083   1.00
C6       0.49642    0.60174    0.21863   1.00
C6       0.43389    0.35760    0.13884   1.00
C6       0.53596    0.56084    0.18866   1.00
C6       0.39965    0.24246    0.15337   1.00
C6       0.50083    0.64893    0.18395   1.00
H2       0.27419    0.20997    0.13660   1.00
H2       0.46039    0.61674    0.22420   1.00
H2       0.30039    0.28965    0.12512   1.00
H2       0.49019    0.55890    0.22775   1.00
H2       0.33858    0.24185    0.11792   1.00
H2       0.54782    0.64406    0.22139   1.00
H2       0.45763    0.34613    0.12619   1.00
H2       0.58851    0.60206    0.19051   1.00
H2       0.41712    0.39210    0.13322   1.00
H2       0.53007    0.51751    0.19749   1.00
H2       0.47265    0.38427    0.15044   1.00
H2       0.52799    0.54618    0.17270   1.00
H2       0.35849    0.19461    0.15943   1.00
H2       0.46658    0.66738    0.18856   1.00
H2       0.42087    0.23020    0.14023   1.00
H2       0.55301    0.68982    0.18670   1.00
H2       0.43960    0.26517    0.16485   1.00
H2       0.49495    0.63951    0.16764   1.00
C4       0.69596    0.86585    0.20251   1.00
C4       0.64500    0.84120    0.21800   1.00
C3       0.69341    0.90268    0.18533   1.00
C3       0.59201    0.85773    0.21851   1.00
C3       0.75193    0.85358    0.20400   1.00
C3       0.64636    0.79839    0.23373   1.00
C2       0.80073    0.91863    0.17169   1.00
C2       0.53998    0.78866    0.24876   1.00
C3       0.74430    0.92861    0.17042   1.00
C3       0.54086    0.83206    0.23334   1.00
C3       0.80289    0.88118    0.18855   1.00
C3       0.59310    0.77300    0.24849   1.00
H1       0.65412    0.91147    0.18290   1.00
H1       0.58899    0.88960    0.20823   1.00
C5       0.75578    0.81437    0.22050   1.00
C5       0.70006    0.78231    0.23451   1.00
H1       0.73962    0.95499    0.15845   1.00
H1       0.50390    0.84568    0.23281   1.00
H1       0.84369    0.87393    0.18915   1.00
H1       0.59205    0.74205    0.25982   1.00
C6       0.81881    0.80798    0.22304   1.00
C6       0.69685    0.73122    0.24993   1.00
H2       0.86393    0.85770    0.22058   1.00
H2       0.64510    0.68788    0.25040   1.00
H2       0.82573    0.79769    0.23870   1.00
H2       0.72564    0.70720    0.24499   1.00
C6       0.81882    0.75192    0.20910   1.00
C6       0.72228    0.76284    0.27151   1.00
H2       0.80214    0.75580    0.19384   1.00
H2       0.70104    0.79540    0.27538   1.00
C6       0.88723    0.75098    0.20706   1.00
C6       0.70731    0.71245    0.28959   1.00
H2       0.77971    0.70225    0.21478   1.00
H2       0.77736    0.79717    0.27062   1.00
C6       0.94281    0.81552    0.19606   1.00
C6       0.62980    0.66897    0.29401   1.00
C6       0.91460    0.74468    0.22800   1.00
C6       0.73642    0.66447    0.28561   1.00
C6       0.87380    0.68811    0.19414   1.00
C6       0.74216    0.75473    0.30894   1.00
H2       0.92464    0.82204    0.18134   1.00
H2       0.60747    0.70137    0.29657   1.00
H2       0.95781    0.86143    0.20494   1.00
H2       0.60260    0.63478    0.28147   1.00
H2       0.98865    0.81220    0.19346   1.00
H2       0.62019    0.63748    0.30749   1.00
H2       0.95956    0.73916    0.22632   1.00
H2       0.73002    0.63295    0.29887   1.00
H2       0.92930    0.78992    0.23721   1.00
H2       0.71027    0.63024    0.27296   1.00
H2       0.87591    0.70041    0.23625   1.00
H2       0.79067    0.69380    0.28204   1.00
H2       0.85501    0.69041    0.17907   1.00
H2       0.72284    0.78905    0.31257   1.00
H2       0.92029    0.68548    0.19217   1.00
H2       0.73276    0.72173    0.32206   1.00
H2       0.83591    0.64075    0.20134   1.00
H2       0.79727    0.78555    0.30692   1.00
C4       0.13491    0.83171    0.20278   1.00
C4       0.16011    0.80586    0.21825   1.00
C3       0.08708    0.78878    0.18788   1.00
C3       0.13400    0.73471    0.22120   1.00
C3       0.15794    0.90309    0.20194   1.00
C3       0.21338    0.85218    0.23143   1.00
C2       0.08137    0.88342    0.17210   1.00
C2       0.21331    0.75362    0.24887   1.00
C3       0.06080    0.81367    0.17306   1.00
C3       0.15993    0.70928    0.23597   1.00
C3       0.12964    0.92633    0.18667   1.00
C3       0.23862    0.82422    0.24620   1.00
H1       0.07006    0.73792    0.18711   1.00
H1       0.09469    0.69868    0.21287   1.00
C5       0.20819    0.94922    0.21600   1.00
C5       0.23975    0.92424    0.22974   1.00
H1       0.02623    0.78003    0.16279   1.00
H1       0.13907    0.65742    0.23727   1.00
H1       0.14440    0.97666    0.18567   1.00
H1       0.27679    0.85554    0.25575   1.00
C6       0.22666    1.02338    0.21631   1.00
C6       0.30091    0.97294    0.24230   1.00
H2       0.18016    1.02628    0.21523   1.00
H2       0.33859    0.95642    0.24196   1.00
H2       0.24629    1.04668    0.23102   1.00
H2       0.32882    1.02298    0.23528   1.00
C6       0.27948    1.06730    0.19951   1.00
C6       0.28196    0.98126    0.26458   1.00
H2       0.26524    1.03946    0.18514   1.00
H2       0.24571    0.93122    0.27078   1.00
C6       0.29085    1.14038    0.19543   1.00
C6       0.34172    1.01791    0.28016   1.00
H2       0.32849    1.07217    0.20359   1.00
H2       0.25420    1.00918    0.26393   1.00
C6       0.22622    1.13759    0.18641   1.00
C6       0.37716    0.97567    0.28445   1.00
C6       0.31218    1.18427    0.21496   1.00
C6       0.39558    1.09003    0.27277   1.00
C6       0.34917    1.17645    0.17967   1.00
C6       0.31192    1.02584    0.30052   1.00
H2       0.20919    1.10603    0.17277   1.00
H2       0.34028    0.92406    0.28938   1.00
H2       0.18423    1.11657    0.19722   1.00
H2       0.40291    0.97165    0.27102   1.00
H2       0.23610    1.18843    0.18231   1.00
H2       0.41552    0.99925    0.29635   1.00
H2       0.32470    1.23651    0.21168   1.00
H2       0.43440    1.11697    0.28435   1.00
H2       0.27101    1.16366    0.22607   1.00
H2       0.42151    1.08712    0.25920   1.00
H2       0.35677    1.18589    0.22186   1.00
H2       0.37172    1.12037    0.26923   1.00
H2       0.33634    1.14783    0.16547   1.00
H2       0.27401    0.97619    0.30652   1.00
H2       0.35874    1.22765    0.17621   1.00
H2       0.35174    1.05083    0.31196   1.00
H2       0.39666    1.18122    0.18534   1.00
H2       0.28736    1.05643    0.29856   1.00
C4       0.97982    0.49916    0.63362   1.00
C4       1.03428    0.52850    0.61923   1.00
C3       0.93723    0.42733    0.63592   1.00
C3       1.05448    0.48837    0.60768   1.00
C3       0.96665    0.54254    0.64629   1.00
C3       1.07055    0.60065    0.61610   1.00
C2       0.87183    0.43975    0.66338   1.00
C2       1.14217    0.58740    0.58942   1.00
C3       0.88508    0.39841    0.65040   1.00
C3       1.10653    0.51675    0.59315   1.00
C3       0.91329    0.51106    0.66093   1.00
C3       1.12298    0.62751    0.60108   1.00
H1       0.94207    0.39332    0.62702   1.00
H1       1.03258    0.43709    0.60954   1.00
C5       1.00596    0.61522    0.64409   1.00
C5       1.05444    0.64399    0.62788   1.00
H1       0.85634    0.34623    0.65136   1.00
H1       1.11848    0.48502    0.58527   1.00
H1       0.90270    0.54021    0.67030   1.00
H1       1.14960    0.67850    0.59832   1.00
C6       0.99635    0.66056    0.65901   1.00
C6       1.08816    0.71924    0.62291   1.00
H2       0.99334    0.64099    0.67430   1.00
H2       1.08850    0.72544    0.60652   1.00
H2       1.04159    0.71074    0.66004   1.00
H2       1.05732    0.74104    0.62783   1.00
C6       0.93332    0.66903    0.65399   1.00
C6       1.16145    0.76205    0.63217   1.00
H2       0.88972    0.61945    0.65003   1.00
H2       1.18976    0.73518    0.62982   1.00
C6       0.90941    0.70183    0.67064   1.00
C6       1.20690    0.83695    0.62442   1.00
H2       0.94517    0.69974    0.64022   1.00
H2       1.15603    0.76352    0.64860   1.00
C6       0.88119    0.65559    0.68965   1.00
C6       1.22628    0.83899    0.60175   1.00
C6       0.96783    0.77308    0.67709   1.00
C6       1.17125    0.87957    0.62736   1.00
C6       0.85082    0.71075    0.66176   1.00
C6       1.27412    0.87122    0.63686   1.00
H2       0.84056    0.60451    0.68555   1.00
H2       1.25058    0.80843    0.59911   1.00
H2       0.92090    0.65054    0.69740   1.00
H2       1.18165    0.81946    0.59197   1.00
H2       0.86033    0.67659    0.70055   1.00
H2       1.26175    0.89104    0.59688   1.00
H2       0.94942    0.79754    0.68760   1.00
H2       1.20520    0.93284    0.62327   1.00
H2       1.00846    0.76918    0.68472   1.00
H2       1.12599    0.86038    0.61783   1.00
H2       0.98957    0.80622    0.66392   1.00
H2       1.15578    0.87780    0.64312   1.00
H2       0.80785    0.66169    0.65714   1.00
H2       1.30172    0.84345    0.63514   1.00
H2       0.83204    0.73313    0.67289   1.00
H2       1.30785    0.92362    0.63191   1.00
H2       0.86799    0.74409    0.64850   1.00
H2       1.26389    0.87259    0.65298   1.00
C4       0.51897    0.02036    0.63355   1.00
C4       0.49368    -0.03415   0.61919   1.00
C3       0.49268    0.06573    0.63500   1.00
C3       0.43576    -0.05152   0.60676   1.00
C3       0.57267    0.03073    0.64709   1.00
C3       0.52689    -0.07340   0.61698   1.00
C2       0.56777    0.12854    0.66326   1.00
C2       0.44450    -0.14220   0.58943   1.00
C3       0.51601    0.11799    0.64945   1.00
C3       0.41203    -0.10365   0.59225   1.00
C3       0.59472    0.08430    0.66167   1.00
C3       0.50135    -0.12581   0.60195   1.00
H1       0.45606    0.06293    0.62547   1.00
H1       0.40822    -0.02740   0.60792   1.00
C5       0.60313    -0.01150   0.64580   1.00
C5       0.58368    -0.06018   0.62965   1.00
H1       0.49476    0.14880    0.64977   1.00
H1       0.37015    -0.11348   0.58371   1.00
H1       0.63246    0.09296    0.67164   1.00
H1       0.52388    -0.15451   0.59984   1.00
C6       0.65473    -0.00470   0.66158   1.00
C6       0.62278    -0.09713   0.62569   1.00
H2       0.63658    -0.00068   0.67654   1.00
H2       0.63088    -0.09780   0.60942   1.00
H2       0.65682    -0.05143   0.66306   1.00
H2       0.67484    -0.06839   0.63127   1.00
C6       0.72837    0.05603    0.65732   1.00
C6       0.58772    -0.17067   0.63499   1.00
H2       0.72561    0.10112    0.65290   1.00
H2       0.53297    -0.19665   0.63191   1.00
C6       0.78224    0.07741    0.67474   1.00
C6       0.61485    -0.21898   0.62813   1.00
H2       0.74802    0.04279    0.64399   1.00
H2       0.59226    -0.16548   0.65148   1.00
C6       0.76354    0.10740    0.69318   1.00
C6       0.60031    -0.23792   0.60535   1.00
C6       0.79041    0.01671    0.68188   1.00
C6       0.69232    -0.18675   0.63215   1.00
C6       0.85231    0.13379    0.66658   1.00
C6       0.57726    -0.28616   0.64052   1.00
H2       0.75631    0.14970    0.68858   1.00
H2       0.54613    -0.25981   0.60194   1.00
H2       0.71675    0.06913    0.70046   1.00
H2       0.62861    -0.19351   0.59566   1.00
H2       0.80368    0.12648    0.70464   1.00
H2       0.61511    -0.27526   0.60106   1.00
H2       0.83146    0.03322    0.69298   1.00
H2       0.70974    -0.22269   0.62868   1.00
H2       0.74381    -0.02252   0.68904   1.00
H2       0.72156    -0.14175   0.62273   1.00
H2       0.80219    -0.00625   0.66910   1.00
H2       0.70414    -0.17163   0.64801   1.00
H2       0.84952    0.17825    0.66152   1.00
H2       0.52227    -0.31141   0.63805   1.00
H2       0.89163    0.15078    0.67827   1.00
H2       0.59419    -0.32184   0.63617   1.00
H2       0.86899    0.11525    0.65377   1.00
H2       0.58669    -0.27630   0.65674   1.00
C4       0.50136    0.48102    0.63356   1.00
C4       0.47214    0.50630    0.61919   1.00
C3       0.57303    0.50741    0.63503   1.00
C3       0.51268    0.56431    0.60679   1.00
C3       0.45803    0.42722    0.64706   1.00
C3       0.39969    0.47300    0.61695   1.00
C2       0.56075    0.43223    0.66327   1.00
C2       0.41326    0.55547    0.58943   1.00
C3       0.60196    0.48409    0.64949   1.00
C3       0.48429    0.58804    0.59229   1.00
C3       0.48954    0.40517    0.66164   1.00
C3       0.37282    0.49854    0.60192   1.00
H1       0.60686    0.54411    0.62552   1.00
H1       0.56433    0.59192    0.60798   1.00
C5       0.38533    0.39665    0.64574   1.00
C5       0.35612    0.41610    0.62959   1.00
H1       0.65403    0.50542    0.64982   1.00
H1       0.51631    0.62998    0.58376   1.00
H1       0.46046    0.36736    0.67160   1.00
H1       0.32159    0.47594    0.59978   1.00
C6       0.34050    0.34492    0.66150   1.00
C6       0.28009    0.37692    0.62560   1.00
H2       0.36258    0.36302    0.67647   1.00
H2       0.27141    0.36890    0.60932   1.00
H2       0.29164    0.34274    0.66296   1.00
H2       0.25682    0.32484    0.63115   1.00
C6       0.32775    0.27136    0.65720   1.00
C6       0.24146    0.41182    0.63489   1.00
H2       0.37566    0.27423    0.65280   1.00
H2       0.27016    0.46659    0.63184   1.00
C6       0.29525    0.21739    0.67460   1.00
C6       0.16602    0.38460    0.62800   1.00
H2       0.29493    0.25173    0.64386   1.00
H2       0.24202    0.40719    0.65138   1.00
C6       0.34385    0.23607    0.69306   1.00
C6       0.16171    0.39924    0.60523   1.00
C6       0.22628    0.20905    0.68172   1.00
C6       0.12087    0.30710    0.63199   1.00
C6       0.28172    0.14740    0.66641   1.00
C6       0.13627    0.42203    0.64040   1.00
H2       0.39344    0.24341    0.68848   1.00
H2       0.19395    0.45345    0.60185   1.00
H2       0.35225    0.28279    0.70036   1.00
H2       0.17795    0.37105    0.59553   1.00
H2       0.32279    0.19586    0.70450   1.00
H2       0.10957    0.38438    0.60091   1.00
H2       0.20175    0.16794    0.69280   1.00
H2       0.06751    0.28961    0.62849   1.00
H2       0.23353    0.25558    0.68889   1.00
H2       0.13676    0.27797    0.62256   1.00
H2       0.19160    0.19728    0.66892   1.00
H2       0.12412    0.29521    0.64784   1.00
H2       0.32903    0.15030    0.66136   1.00
H2       0.16595    0.47705    0.63795   1.00
H2       0.25938    0.10801    0.67808   1.00
H2       0.08366    0.40504    0.63603   1.00
H2       0.24656    0.13073    0.65358   1.00
H2       0.13664    0.41253    0.65662   1.00
C4       0.50510    0.03088    0.13027   1.00
C4       0.47701    -0.02042   0.11490   1.00
C3       0.56657    0.04743    0.14071   1.00
C3       0.51197    -0.05362   0.10741   1.00
C3       0.47103    0.06746    0.13562   1.00
C3       0.41157    -0.03983   0.10650   1.00
C2       0.56372    0.13690    0.16065   1.00
C2       0.41883    -0.12652   0.08453   1.00
C3       0.59527    0.09903    0.15537   1.00
C3       0.48374    -0.10529   0.09277   1.00
C3       0.50215    0.11989    0.15055   1.00
C3       0.38445    -0.09295   0.09169   1.00
H1       0.59244    0.02215    0.13820   1.00
H1       0.55956    -0.04102   0.11218   1.00
C5       0.40749    0.05112    0.12624   1.00
C5       0.37519    -0.00624   0.11281   1.00
H1       0.63985    0.10868    0.16230   1.00
H1       0.51143    -0.12742   0.08806   1.00
H1       0.47971    0.14734    0.15466   1.00
H1       0.33787    -0.10848   0.08546   1.00
C6       0.37579    0.09499    0.13046   1.00
C6       0.30304    -0.03218   0.10542   1.00
H2       0.41545    0.14850    0.12996   1.00
H2       0.27489    -0.08768   0.10626   1.00
H2       0.34256    0.09236    0.11817   1.00
H2       0.27427    -0.01885   0.11580   1.00
C6       0.33493    0.07664    0.15088   1.00
C6       0.29973    -0.00621   0.08364   1.00
H2       0.36429    0.06942    0.16280   1.00
H2       0.33621    -0.01035   0.07374   1.00
C6       0.31295    0.12775    0.15902   1.00
C6       0.22895    -0.04130   0.07265   1.00
H2       0.28912    0.02685    0.14896   1.00
H2       0.31782    0.04836    0.08470   1.00
C6       0.37547    0.19687    0.16525   1.00
C6       0.20450    -0.11700   0.06759   1.00
C6       0.27008    0.14062    0.14319   1.00
C6       0.17375    -0.03725   0.08547   1.00
C6       0.26828    0.09649    0.17823   1.00
C6       0.23642    -0.00362   0.05230   1.00
H2       0.40742    0.18943    0.17618   1.00
H2       0.24286    -0.12169   0.05882   1.00
H2       0.40700    0.22370    0.15220   1.00
H2       0.19414    -0.14748   0.08129   1.00
H2       0.35951    0.23038    0.17220   1.00
H2       0.15755    -0.13964   0.05871   1.00
H2       0.25094    0.17239    0.14953   1.00
H2       0.12595    -0.05746   0.07709   1.00
H2       0.30060    0.16688    0.12990   1.00
H2       0.16312    -0.06695   0.09937   1.00
H2       0.22649    0.09261    0.13823   1.00
H2       0.19033    0.01542    0.08960   1.00
H2       0.29648    0.08703    0.19000   1.00
H2       0.27440    -0.00559   0.04256   1.00
H2       0.25200    0.13059    0.18457   1.00
H2       0.18830    -0.02661   0.04399   1.00
H2       0.22253    0.04814    0.17472   1.00
H2       0.25228    0.04988    0.05489   1.00
C4       0.97900    0.48185    0.13334   1.00
C4       1.03168    0.50949    0.11838   1.00
C3       0.98207    0.44591    0.15068   1.00
C3       1.09419    0.50942    0.12076   1.00
C3       0.92059    0.48989    0.13112   1.00
C3       1.02242    0.53861    0.10025   1.00
C2       0.87410    0.42884    0.16413   1.00
C2       1.13688    0.56234    0.08768   1.00
C3       0.93146    0.42046    0.16568   1.00
C3       1.14511    0.53469    0.10586   1.00
C3       0.87036    0.46354    0.14679   1.00
C3       1.07537    0.56346    0.08540   1.00
H1       1.02086    0.43627    0.15296   1.00
H1       1.10535    0.49162    0.13350   1.00
C5       0.91326    0.52309    0.11356   1.00
C5       0.96180    0.54272    0.09737   1.00
H1       0.93680    0.39524    0.17786   1.00
H1       1.18892    0.53292    0.10846   1.00
H1       0.82833    0.46867    0.14581   1.00
H1       1.07046    0.58411    0.07226   1.00
C6       0.85496    0.53766    0.11245   1.00
C6       0.94947    0.56694    0.07725   1.00
H2       0.84987    0.55720    0.12706   1.00
H2       0.96240    0.54310    0.06499   1.00
H2       0.86680    0.58041    0.10248   1.00
H2       0.89548    0.54734    0.07454   1.00
C6       0.78606    0.47453    0.10550   1.00
C6       0.98834    0.64656    0.07516   1.00
H2       0.77861    0.42892    0.11344   1.00
H2       1.04057    0.66759    0.08069   1.00
C6       0.71951    0.47869    0.10811   1.00
C6       0.99181    0.67704    0.05359   1.00
H2       0.79115    0.46534    0.08950   1.00
H2       0.96441    0.66610    0.08550   1.00
C6       0.70245    0.48079    0.13079   1.00
C6       1.03476    0.66073    0.03869   1.00
C6       0.72487    0.54163    0.09709   1.00
C6       0.91976    0.65073    0.04455   1.00
C6       0.65910    0.41381    0.09862   1.00
C6       1.02693    0.75582    0.05547   1.00
H2       0.69941    0.43758    0.13907   1.00
H2       1.08562    0.67768    0.04479   1.00
H2       0.74089    0.52736    0.13813   1.00
H2       1.01071    0.60626    0.03569   1.00
H2       0.65359    0.47890    0.13248   1.00
H2       1.04084    0.68611    0.02414   1.00
H2       0.67660    0.54140    0.09777   1.00
H2       0.92251    0.67596    0.03019   1.00
H2       0.76362    0.58885    0.10409   1.00
H2       0.89453    0.59609    0.04162   1.00
H2       0.73827    0.54214    0.08117   1.00
H2       0.88799    0.66031    0.05494   1.00
H2       0.65262    0.36779    0.10602   1.00
H2       1.07841    0.77712    0.06160   1.00
H2       0.61126    0.41413    0.10019   1.00
H2       1.03097    0.77955    0.04073   1.00
H2       0.66750    0.41016    0.08248   1.00
H2       0.99820    0.77064    0.06550   1.00
C4       0.51879    0.49833    0.13352   1.00
C4       0.49100    0.52352    0.11864   1.00
C3       0.56284    0.54029    0.14928   1.00
C3       0.49944    0.59015    0.11973   1.00
C3       0.50254    0.42868    0.13281   1.00
C3       0.45310    0.48111    0.10196   1.00
C2       0.57234    0.44661    0.16419   1.00
C2       0.43770    0.57573    0.08804   1.00
C3       0.58858    0.51526    0.16423   1.00
C3       0.47395    0.61570    0.10486   1.00
C3       0.52950    0.40509    0.14839   1.00
C3       0.42831    0.50919    0.08708   1.00
H1       0.57842    0.59078    0.15038   1.00
H1       0.52384    0.62239    0.13146   1.00
C5       0.46078    0.38470    0.11681   1.00
C5       0.44048    0.41256    0.10050   1.00
H1       0.61988    0.54807    0.17524   1.00
H1       0.48199    0.66429    0.10648   1.00
H1       0.51871    0.35578    0.14848   1.00
H1       0.40153    0.48077    0.07493   1.00
C6       0.43807    0.30947    0.11747   1.00
C6       0.40667    0.37083    0.08169   1.00
H2       0.42196    0.29060    0.13285   1.00
H2       0.42904    0.40266    0.06833   1.00
H2       0.39121    0.27922    0.10898   1.00
H2       0.41978    0.33126    0.07934   1.00
C6       0.49363    0.29318    0.10952   1.00
C6       0.32707    0.33738    0.08192   1.00
H2       0.54333    0.33007    0.11579   1.00
H2       0.31320    0.37464    0.08716   1.00
C6       0.48212    0.22006    0.11363   1.00
C6       0.28809    0.30604    0.06160   1.00
H2       0.49840    0.30202    0.09316   1.00
H2       0.30722    0.29733    0.09344   1.00
C6       0.48565    0.20728    0.13660   1.00
C6       0.30528    0.36169    0.04528   1.00
C6       0.41293    0.16398    0.10503   1.00
C6       0.30391    0.25168    0.05307   1.00
C6       0.53968    0.21355    0.10293   1.00
C6       0.21029    0.27066    0.06581   1.00
H2       0.53348    0.24669    0.14322   1.00
H2       0.29572    0.40146    0.05096   1.00
H2       0.44393    0.20695    0.14491   1.00
H2       0.35852    0.38586    0.04067   1.00
H2       0.48231    0.15811    0.13921   1.00
H2       0.27438    0.34001    0.03168   1.00
H2       0.40757    0.11356    0.10668   1.00
H2       0.27283    0.22671    0.03972   1.00
H2       0.37045    0.16326    0.11302   1.00
H2       0.35721    0.27479    0.04855   1.00
H2       0.40854    0.17260    0.08896   1.00
H2       0.29359    0.21263    0.06442   1.00
H2       0.58974    0.25166    0.10862   1.00
H2       0.19625    0.30707    0.07167   1.00
H2       0.53411    0.16336    0.10548   1.00
H2       0.18081    0.24832    0.05200   1.00
H2       0.53899    0.22071    0.08658   1.00
H2       0.19471    0.22984    0.07693   1.00
C4       0.69771    0.83766    0.70312   1.00
C4       0.64627    0.80928    0.71844   1.00
C3       0.71946    0.90282    0.69431   1.00
C3       0.61818    0.84689    0.72753   1.00
C3       0.72909    0.80010    0.69613   1.00
C3       0.62144    0.74079    0.72514   1.00
C2       0.80408    0.89655    0.67284   1.00
C2       0.53987    0.75086    0.74872   1.00
C3       0.77124    0.93162    0.67971   1.00
C3       0.56637    0.81858    0.74213   1.00
C3       0.78190    0.83141    0.68131   1.00
C3       0.56838    0.71374    0.73997   1.00
H1       0.69801    0.93152    0.69803   1.00
H1       0.63479    0.89648    0.72402   1.00
C5       0.70735    0.73304    0.70380   1.00
C5       0.64976    0.70136    0.71717   1.00
H1       0.78478    0.97894    0.67401   1.00
H1       0.54808    0.84829    0.74804   1.00
H1       0.80574    0.80650    0.67607   1.00
H1       0.54907    0.66508    0.74501   1.00
C6       0.74585    0.69695    0.69790   1.00
C6       0.61809    0.62677    0.72278   1.00
H2       0.80042    0.73301    0.69869   1.00
H2       0.56276    0.60298    0.72202   1.00
H2       0.74005    0.65938    0.70917   1.00
H2       0.62798    0.59826    0.71133   1.00
C6       0.72460    0.66151    0.67662   1.00
C6       0.64226    0.61513    0.74393   1.00
H2       0.72068    0.69590    0.66576   1.00
H2       0.64183    0.65092    0.75497   1.00
C6       0.77093    0.63588    0.66697   1.00
C6       0.60203    0.54190    0.75331   1.00
H2       0.67293    0.61806    0.67797   1.00
H2       0.69574    0.62904    0.74249   1.00
C6       0.84257    0.69601    0.66150   1.00
C6       0.52788    0.52234    0.75888   1.00
C6       0.77885    0.58586    0.68121   1.00
C6       0.60056    0.48741    0.73878   1.00
C6       0.73706    0.59739    0.64701   1.00
C6       0.63834    0.54076    0.77316   1.00
H2       0.83870    0.73286    0.65172   1.00
H2       0.52713    0.56044    0.76887   1.00
H2       0.87100    0.72286    0.67501   1.00
H2       0.49806    0.51806    0.74544   1.00
H2       0.87280    0.67802    0.65352   1.00
H2       0.50179    0.47329    0.76668   1.00
H2       0.80712    0.56456    0.67378   1.00
H2       0.57669    0.43736    0.74602   1.00
H2       0.80664    0.61165    0.69493   1.00
H2       0.57146    0.48281    0.72511   1.00
H2       0.72908    0.54375    0.68563   1.00
H2       0.65211    0.50072    0.73428   1.00
H2       0.73092    0.63073    0.63630   1.00
H2       0.64013    0.57793    0.78406   1.00
H2       0.76783    0.57884    0.63961   1.00
H2       0.61181    0.49066    0.78036   1.00
H2       0.68676    0.55344    0.64993   1.00
H2       0.69061    0.55284    0.77015   1.00
C4       0.13452    0.30357    0.70267   1.00
C4       0.15762    0.35651    0.71751   1.00
C3       0.14445    0.24650    0.70480   1.00
C3       0.18573    0.35258    0.73646   1.00
C3       0.10017    0.30703    0.68490   1.00
C3       0.15271    0.41598    0.71353   1.00
C2       0.08489    0.19479    0.67314   1.00
C2       0.20743    0.46501    0.74714   1.00
C3       0.12014    0.19355    0.69056   1.00
C3       0.21022    0.40524    0.75080   1.00
C3       0.07588    0.25186    0.67081   1.00
C3       0.17858    0.46863    0.72849   1.00
H1       0.17031    0.24162    0.71668   1.00
H1       0.18885    0.31100    0.74064   1.00
C5       0.09120    0.36461    0.68149   1.00
C5       0.12227    0.42160    0.69509   1.00
H1       0.12871    0.15367    0.69302   1.00
H1       0.23016    0.39940    0.76414   1.00
H1       0.05081    0.25226    0.65806   1.00
H1       0.17642    0.51189    0.72615   1.00
C6       0.04850    0.36418    0.66376   1.00
C6       0.12400    0.48773    0.69012   1.00
H2       0.00250    0.31431    0.66283   1.00
H2       0.17453    0.53031    0.69357   1.00
H2       0.02737    0.39730    0.66644   1.00
H2       0.12066    0.49382    0.67388   1.00
C6       0.08848    0.38466    0.64317   1.00
C6       0.06659    0.49518    0.70105   1.00
H2       0.11803    0.35872    0.64172   1.00
H2       0.06301    0.47947    0.71689   1.00
C6       0.04610    0.37149    0.62323   1.00
C6       0.07238    0.56703    0.70071   1.00
H2       0.12625    0.43894    0.64394   1.00
H2       0.01789    0.45843    0.69423   1.00
C6       -0.00140   0.29418    0.61927   1.00
C6       0.13490    0.62026    0.71299   1.00
C6       0.00293    0.40718    0.62374   1.00
C6       0.07686    0.59337    0.67876   1.00
C6       0.09630    0.40107    0.60508   1.00
C6       0.00751    0.56097    0.71073   1.00
H2       0.02741    0.26731    0.61915   1.00
H2       0.13383    0.60265    0.72849   1.00
H2       -0.04079   0.27086    0.63084   1.00
H2       0.18263    0.63019    0.70605   1.00
H2       -0.02715   0.28539    0.60466   1.00
H2       0.13583    0.66884    0.71385   1.00
H2       -0.02257   0.40178    0.60924   1.00
H2       0.07595    0.64111    0.67862   1.00
H2       -0.03642   0.38497    0.63539   1.00
H2       0.12405    0.60300    0.67146   1.00
H2       0.03498    0.46146    0.62694   1.00
H2       0.03415    0.55617    0.66966   1.00
H2       0.12761    0.37701    0.60390   1.00
H2       0.00230    0.54318    0.72637   1.00
H2       0.06903    0.39270    0.59076   1.00
H2       0.00937    0.61008    0.71097   1.00
H2       0.13037    0.45589    0.60679   1.00
H2       -0.03836   0.52506    0.70248   1.00
C4       0.16863    0.86527    0.70273   1.00
C4       0.19843    0.84223    0.71761   1.00
C3       0.10045    0.85242    0.70434   1.00
C3       0.16481    0.81113    0.73613   1.00
C3       0.20772    0.90258    0.68547   1.00
C3       0.26439    0.85029    0.71410   1.00
C2       0.10941    0.91471    0.67317   1.00
C2       0.25719    0.79259    0.74727   1.00
C3       0.07174    0.87662    0.69008   1.00
C3       0.19303    0.78672    0.75048   1.00
C3       0.17673    0.92665    0.67135   1.00
C3       0.29117    0.82440    0.72905   1.00
H1       0.06885    0.82441    0.71582   1.00
H1       0.11886    0.80565    0.73998   1.00
C5       0.27565    0.91464    0.68258   1.00
C5       0.30194    0.88379    0.69613   1.00
H1       0.02239    0.86585    0.69215   1.00
H1       0.16609    0.76453    0.76350   1.00
H1       0.20306    0.95376    0.65896   1.00
H1       0.33770    0.82876    0.72704   1.00
C6       0.31892    0.96030    0.66544   1.00
C6       0.36831    0.88547    0.69159   1.00
H2       0.31304    1.00517    0.66481   1.00
H2       0.36203    0.83535    0.69463   1.00
H2       0.37305    0.98296    0.66864   1.00
H2       0.37963    0.89107    0.67545   1.00
C6       0.30311    0.92283    0.64446   1.00
C6       0.43075    0.94307    0.70335   1.00
H2       0.24793    0.89173    0.64244   1.00
H2       0.41642    0.94416    0.71912   1.00
C6       0.33331    0.96787    0.62503   1.00
C6       0.49847    0.94032    0.70342   1.00
H2       0.32154    0.88655    0.64508   1.00
H2       0.44158    0.99199    0.69695   1.00
C6       0.30125    1.01346    0.62120   1.00
C6       0.49035    0.87737    0.71520   1.00
C6       0.41185    1.01340    0.62638   1.00
C6       0.52347    0.93950    0.68160   1.00
C6       0.31655    0.92009    0.60641   1.00
C6       0.55451    1.00506    0.71428   1.00
H2       0.24569    0.98292    0.62050   1.00
H2       0.47168    0.87587    0.73058   1.00
H2       0.31459    1.05126    0.63315   1.00
H2       0.45466    0.82993    0.70767   1.00
H2       0.31907    1.04109    0.60690   1.00
H2       0.53894    0.87843    0.71637   1.00
H2       0.43288    1.04091    0.61221   1.00
H2       0.57310    0.94251    0.68181   1.00
H2       0.42630    1.05121    0.63840   1.00
H2       0.48803    0.89263    0.67373   1.00
H2       0.43560    0.98268    0.62950   1.00
H2       0.52824    0.98254    0.67284   1.00
H2       0.26153    0.88724    0.60464   1.00
H2       0.53967    1.00774    0.72986   1.00
H2       0.33625    0.94925    0.59241   1.00
H2       0.60280    1.00526    0.71483   1.00
H2       0.33902    0.88749    0.60803   1.00
H2       0.56359    1.05129    0.70642   1.00
