data_IRMOF10_interpen_symm_ligand3lp_label_e_2.

_audit_creation_method             'generated by an auxiliary program of Tobunporous'

_symmetry_space_group_name_H-M     'P 1'
_symmetry_Int_Tables_number        1
_symmetry_cell_setting             triclinic

_cell_length_a                    22.6523
_cell_length_b                    22.6523
_cell_length_c                    65.9502
_cell_angle_alpha                 90.0000
_cell_angle_beta                  90.0000
_cell_angle_gamma                 120.0000

loop_
_atom_site_label
_atom_site_fract_x
_atom_site_fract_y
_atom_site_fract_z
_atom_site_occupancy
O1       0.00000    -0.00000   0.62500   1.00
Zn1      0.00000    -0.00000   0.59589   1.00
Zn1      0.94848    1.04288    0.63392   1.00
Zn1      0.09439    0.05152    0.63392   1.00
Zn1      -0.04288   0.90561    0.63392   1.00
O2       0.93860    0.02610    0.58587   1.00
O2       0.08750    0.06140    0.58587   1.00
O2       -0.02610   0.91250    0.58587   1.00
O2       0.91305    0.07161    0.61181   1.00
O2       0.00462    0.12022    0.65110   1.00
O2       0.87413    0.98074    0.65071   1.00
O2       0.15856    0.08695    0.61181   1.00
O2       0.10660    0.12587    0.65071   1.00
O2       0.11559    0.99538    0.65110   1.00
O2       -0.07161   0.84144    0.61181   1.00
O2       0.87978    0.88441    0.65110   1.00
O2       0.01926    0.89340    0.65071   1.00
C1       0.91390    0.06020    0.59358   1.00
C1       0.14630    0.08610    0.59358   1.00
C1       -0.06020   0.85370    0.59358   1.00
C1       0.06663    0.14397    0.65673   1.00
C1       0.85603    0.92267    0.65673   1.00
C1       0.07733    0.93337    0.65673   1.00
O1       -0.00000   0.00000    0.87500   1.00
Zn1      -0.00000   0.00000    0.90411   1.00
Zn1      1.04288    0.94848    0.86608   1.00
Zn1      0.05152    0.09439    0.86608   1.00
Zn1      0.90561    -0.04288   0.86608   1.00
O2       0.02610    0.93860    0.91413   1.00
O2       0.06140    0.08750    0.91413   1.00
O2       0.91250    -0.02610   0.91413   1.00
O2       0.07161    0.91305    0.88819   1.00
O2       0.12022    0.00462    0.84890   1.00
O2       0.98074    0.87413    0.84929   1.00
O2       0.08695    0.15856    0.88819   1.00
O2       0.12587    0.10660    0.84929   1.00
O2       0.99538    0.11559    0.84890   1.00
O2       0.84144    -0.07161   0.88819   1.00
O2       0.88441    0.87978    0.84890   1.00
O2       0.89340    0.01926    0.84929   1.00
C1       0.06020    0.91390    0.90642   1.00
C1       0.08610    0.14630    0.90642   1.00
C1       0.85370    -0.06020   0.90642   1.00
C1       0.14397    0.06663    0.84327   1.00
C1       0.92267    0.85603    0.84327   1.00
C1       0.93337    0.07733    0.84327   1.00
O1       0.00000    0.00000    0.37500   1.00
Zn1      0.00000    0.00000    0.40411   1.00
Zn1      0.05152    -0.04288   0.36608   1.00
Zn1      0.90561    0.94848    0.36608   1.00
Zn1      1.04288    0.09439    0.36608   1.00
O2       0.06140    -0.02610   0.41413   1.00
O2       0.91250    0.93860    0.41413   1.00
O2       0.02610    0.08750    0.41413   1.00
O2       0.08695    -0.07161   0.38819   1.00
O2       0.99538    0.87978    0.34890   1.00
O2       0.12587    0.01926    0.34929   1.00
O2       0.84144    0.91305    0.38819   1.00
O2       0.89340    0.87413    0.34929   1.00
O2       0.88441    0.00462    0.34890   1.00
O2       0.07161    0.15856    0.38819   1.00
O2       0.12022    0.11559    0.34890   1.00
O2       0.98074    0.10660    0.34929   1.00
C1       0.08610    -0.06020   0.40642   1.00
C1       0.85370    0.91390    0.40642   1.00
C1       0.06020    0.14630    0.40642   1.00
C1       0.93337    0.85603    0.34327   1.00
C1       0.14397    0.07733    0.34327   1.00
C1       0.92267    0.06663    0.34327   1.00
O1       0.00000    0.00000    0.12500   1.00
Zn1      0.00000    0.00000    0.09589   1.00
Zn1      -0.04288   0.05152    0.13392   1.00
Zn1      0.94848    0.90561    0.13392   1.00
Zn1      0.09439    1.04288    0.13392   1.00
O2       -0.02610   0.06140    0.08587   1.00
O2       0.93860    0.91250    0.08587   1.00
O2       0.08750    0.02610    0.08587   1.00
O2       -0.07161   0.08695    0.11181   1.00
O2       0.87978    0.99538    0.15110   1.00
O2       0.01926    0.12587    0.15071   1.00
O2       0.91305    0.84144    0.11181   1.00
O2       0.87413    0.89340    0.15071   1.00
O2       0.00462    0.88441    0.15110   1.00
O2       0.15856    0.07161    0.11181   1.00
O2       0.11559    0.12022    0.15110   1.00
O2       0.10660    0.98074    0.15071   1.00
C1       -0.06020   0.08610    0.09358   1.00
C1       0.91390    0.85370    0.09358   1.00
C1       0.14630    0.06020    0.09358   1.00
C1       0.85603    0.93337    0.15673   1.00
C1       0.07733    0.14397    0.15673   1.00
C1       0.06663    0.92267    0.15673   1.00
O1       0.66667    0.33333    0.95833   1.00
Zn1      0.66667    0.33333    0.92922   1.00
Zn1      0.61515    0.37621    0.96725   1.00
Zn1      0.76106    0.38485    0.96725   1.00
Zn1      -0.37621   0.23894    0.96725   1.00
O2       0.60527    0.35943    0.91920   1.00
O2       0.75417    0.39473    0.91920   1.00
O2       0.64057    0.24583    0.91920   1.00
O2       0.57972    0.40494    0.94514   1.00
O2       0.67129    0.45355    0.98443   1.00
O2       0.54080    0.31407    0.98404   1.00
O2       0.82523    0.42028    0.94514   1.00
O2       0.77327    0.45920    0.98404   1.00
O2       -0.21774   0.32871    0.98443   1.00
O2       0.59506    0.17477    0.94514   1.00
O2       0.54645    0.21774    0.98443   1.00
O2       -0.31407   0.22673    0.98404   1.00
C1       0.58057    0.39353    0.92691   1.00
C1       0.81297    0.41943    0.92691   1.00
C1       0.60647    0.18703    0.92691   1.00
C1       0.73330    0.47730    0.99006   1.00
C1       0.52270    0.25600    0.99006   1.00
C1       -0.25600   0.26670    0.99006   1.00
O1       0.66667    0.33333    0.20833   1.00
Zn1      0.66667    0.33333    0.23744   1.00
Zn1      0.70954    0.28182    0.19942   1.00
Zn1      0.71818    0.42773    0.19942   1.00
Zn1      0.57227    0.29046    0.19942   1.00
O2       0.69277    0.27193    0.24746   1.00
O2       0.72807    0.42083    0.24746   1.00
O2       0.57917    0.30723    0.24746   1.00
O2       0.73828    0.24638    0.22152   1.00
O2       0.78688    0.33796    0.18224   1.00
O2       0.64740    0.20747    0.18263   1.00
O2       0.75362    0.49189    0.22152   1.00
O2       0.79253    0.43994    0.18263   1.00
O2       0.66204    0.44893    0.18224   1.00
O2       0.50811    0.26172    0.22152   1.00
O2       0.55107    0.21312    0.18224   1.00
O2       0.56006    0.35260    0.18263   1.00
C1       0.72687    0.24723    0.23975   1.00
C1       0.75277    0.47963    0.23975   1.00
C1       0.52037    0.27313    0.23975   1.00
C1       0.81063    0.39997    0.17661   1.00
C1       0.58933    0.18937    0.17661   1.00
C1       0.60003    0.41067    0.17661   1.00
O1       0.66667    0.33333    0.70833   1.00
Zn1      0.66667    0.33333    0.73744   1.00
Zn1      0.71818    0.29046    0.69942   1.00
Zn1      0.57227    0.28182    0.69942   1.00
Zn1      0.70954    0.42773    0.69942   1.00
O2       0.72807    0.30723    0.74746   1.00
O2       0.57917    0.27193    0.74746   1.00
O2       0.69277    0.42083    0.74746   1.00
O2       0.75362    0.26172    0.72152   1.00
O2       0.66204    0.21312    0.68224   1.00
O2       0.79253    0.35260    0.68263   1.00
O2       0.50811    0.24638    0.72152   1.00
O2       0.56006    0.20747    0.68263   1.00
O2       0.55107    0.33796    0.68224   1.00
O2       0.73828    0.49189    0.72152   1.00
O2       0.78688    0.44893    0.68224   1.00
O2       0.64740    0.43994    0.68263   1.00
C1       0.75277    0.27313    0.73975   1.00
C1       0.52037    0.24723    0.73975   1.00
C1       0.72687    0.47963    0.73975   1.00
C1       0.60003    0.18937    0.67661   1.00
C1       0.81063    0.41067    0.67661   1.00
C1       0.58933    0.39997    0.67661   1.00
O1       0.66667    0.33333    0.45833   1.00
Zn1      0.66667    0.33333    0.42922   1.00
Zn1      -0.37621   0.38485    0.46725   1.00
Zn1      0.61515    0.23894    0.46725   1.00
Zn1      0.76106    0.37621    0.46725   1.00
O2       0.64057    0.39473    0.41920   1.00
O2       0.60527    0.24583    0.41920   1.00
O2       0.75417    0.35943    0.41920   1.00
O2       0.59506    0.42028    0.44514   1.00
O2       0.54645    0.32871    0.48443   1.00
O2       -0.31407   0.45920    0.48404   1.00
O2       0.57972    0.17477    0.44514   1.00
O2       0.54080    0.22673    0.48404   1.00
O2       0.67129    0.21774    0.48443   1.00
O2       0.82523    0.40494    0.44514   1.00
O2       -0.21774   0.45355    0.48443   1.00
O2       0.77327    0.31407    0.48404   1.00
C1       0.60647    0.41943    0.42691   1.00
C1       0.58057    0.18703    0.42691   1.00
C1       0.81297    0.39353    0.42691   1.00
C1       0.52270    0.26670    0.49006   1.00
C1       -0.25600   0.47730    0.49006   1.00
C1       0.73330    0.25600    0.49006   1.00
O1       0.33333    0.66667    0.29167   1.00
Zn1      0.33333    0.66667    0.26256   1.00
Zn1      0.28182    0.70954    0.30058   1.00
Zn1      0.42773    0.71818    0.30058   1.00
Zn1      0.29046    0.57227    0.30058   1.00
O2       0.27193    0.69277    0.25254   1.00
O2       0.42083    0.72807    0.25254   1.00
O2       0.30723    0.57917    0.25254   1.00
O2       0.24638    0.73828    0.27848   1.00
O2       0.33796    0.78688    0.31776   1.00
O2       0.20747    0.64740    0.31737   1.00
O2       0.49189    0.75362    0.27848   1.00
O2       0.43994    0.79253    0.31737   1.00
O2       0.44893    0.66204    0.31776   1.00
O2       0.26172    0.50811    0.27848   1.00
O2       0.21312    0.55107    0.31776   1.00
O2       0.35260    0.56006    0.31737   1.00
C1       0.24723    0.72687    0.26025   1.00
C1       0.47963    0.75277    0.26025   1.00
C1       0.27313    0.52037    0.26025   1.00
C1       0.39997    0.81063    0.32339   1.00
C1       0.18937    0.58933    0.32339   1.00
C1       0.41067    0.60003    0.32339   1.00
O1       0.33333    0.66667    0.54167   1.00
Zn1      0.33333    0.66667    0.57078   1.00
Zn1      0.37621    0.61515    0.53275   1.00
Zn1      0.38485    0.76106    0.53275   1.00
Zn1      0.23894    -0.37621   0.53275   1.00
O2       0.35943    0.60527    0.58080   1.00
O2       0.39473    0.75417    0.58080   1.00
O2       0.24583    0.64057    0.58080   1.00
O2       0.40494    0.57972    0.55486   1.00
O2       0.45355    0.67129    0.51557   1.00
O2       0.31407    0.54080    0.51596   1.00
O2       0.42028    0.82523    0.55486   1.00
O2       0.45920    0.77327    0.51596   1.00
O2       0.32871    -0.21774   0.51557   1.00
O2       0.17477    0.59506    0.55486   1.00
O2       0.21774    0.54645    0.51557   1.00
O2       0.22673    -0.31407   0.51596   1.00
C1       0.39353    0.58057    0.57309   1.00
C1       0.41943    0.81297    0.57309   1.00
C1       0.18703    0.60647    0.57309   1.00
C1       0.47730    0.73330    0.50994   1.00
C1       0.25600    0.52270    0.50994   1.00
C1       0.26670    -0.25600   0.50994   1.00
O1       0.33333    0.66667    0.04167   1.00
Zn1      0.33333    0.66667    0.07078   1.00
Zn1      0.38485    -0.37621   0.03275   1.00
Zn1      0.23894    0.61515    0.03275   1.00
Zn1      0.37621    0.76106    0.03275   1.00
O2       0.39473    0.64057    0.08080   1.00
O2       0.24583    0.60527    0.08080   1.00
O2       0.35943    0.75417    0.08080   1.00
O2       0.42028    0.59506    0.05486   1.00
O2       0.32871    0.54645    0.01557   1.00
O2       0.45920    -0.31407   0.01596   1.00
O2       0.17477    0.57972    0.05486   1.00
O2       0.22673    0.54080    0.01596   1.00
O2       0.21774    0.67129    0.01557   1.00
O2       0.40494    0.82523    0.05486   1.00
O2       0.45355    -0.21774   0.01557   1.00
O2       0.31407    0.77327    0.01596   1.00
C1       0.41943    0.60647    0.07309   1.00
C1       0.18703    0.58057    0.07309   1.00
C1       0.39353    0.81297    0.07309   1.00
C1       0.26670    0.52270    0.00994   1.00
C1       0.47730    -0.25600   0.00994   1.00
C1       0.25600    0.73330    0.00994   1.00
O1       0.33333    0.66667    0.79167   1.00
Zn1      0.33333    0.66667    0.76256   1.00
Zn1      0.29046    0.71818    0.80058   1.00
Zn1      0.28182    0.57227    0.80058   1.00
Zn1      0.42773    0.70954    0.80058   1.00
O2       0.30723    0.72807    0.75254   1.00
O2       0.27193    0.57917    0.75254   1.00
O2       0.42083    0.69277    0.75254   1.00
O2       0.26172    0.75362    0.77848   1.00
O2       0.21312    0.66204    0.81776   1.00
O2       0.35260    0.79253    0.81737   1.00
O2       0.24638    0.50811    0.77848   1.00
O2       0.20747    0.56006    0.81737   1.00
O2       0.33796    0.55107    0.81776   1.00
O2       0.49189    0.73828    0.77848   1.00
O2       0.44893    0.78688    0.81776   1.00
O2       0.43994    0.64740    0.81737   1.00
C1       0.27313    0.75277    0.76025   1.00
C1       0.24723    0.52037    0.76025   1.00
C1       0.47963    0.72687    0.76025   1.00
C1       0.18937    0.60003    0.82339   1.00
C1       0.41067    0.81063    0.82339   1.00
C1       0.39997    0.58933    0.82339   1.00
C4       -0.13871   0.68832    0.55059   1.00
C4       -0.16884   0.63244    0.53667   1.00
C3       -0.08569   0.69955    0.56428   1.00
C3       -0.15336   0.57892    0.53634   1.00
C3       -0.16328   0.73535    0.55119   1.00
C3       -0.21710   0.62939    0.52217   1.00
C2       -0.08280   0.80061    0.57896   1.00
C2       -0.23312   0.52039    0.50835   1.00
C3       -0.05874   0.75390    0.57816   1.00
C3       -0.18412   0.52476    0.52245   1.00
C3       -0.13454   0.79059    0.56504   1.00
C3       -0.24966   0.57287    0.50889   1.00
H1       -0.06493   0.66871    0.56453   1.00
H1       -0.11962   0.57748    0.54625   1.00
C5       -0.21619   0.72706    0.53790   1.00
C5       -0.23311   0.68234    0.52109   1.00
H1       -0.02080   0.75917    0.58780   1.00
H1       -0.17051   0.48780    0.52279   1.00
H1       -0.15137   0.82499    0.56491   1.00
H1       -0.28724   0.56923    0.49948   1.00
O3       -0.24742   0.76531    0.54079   1.00
O3       -0.26874   0.68747    0.50481   1.00
Si1      -0.31696   0.73466    0.55434   1.00
Si1      -0.22687   0.72686    0.48438   1.00
C6       -0.32235   0.80975    0.55516   1.00
C6       -0.38365   0.67085    0.53978   1.00
C6       -0.30788   0.70909    0.57890   1.00
C6       -0.13794   0.75859    0.48377   1.00
C6       -0.26660   0.66498    0.46538   1.00
C6       -0.24436   0.79315    0.47963   1.00
C6       -0.25475   0.87685    0.56068   1.00
H2       -0.33243   0.81578    0.53932   1.00
C6       -0.37976   0.81276    0.56768   1.00
H2       -0.36488   0.68650    0.52435   1.00
C6       -0.39869   0.59574    0.54183   1.00
C6       -0.45523   0.66560    0.54037   1.00
H2       -0.26005   0.75281    0.58400   1.00
C6       -0.36280   0.69907    0.59509   1.00
C6       -0.29969   0.64455    0.58153   1.00
C6       -0.09307   0.80992    0.50067   1.00
C6       -0.11052   0.70783    0.48097   1.00
H2       -0.12292   0.78810    0.46973   1.00
H2       -0.25096   0.62761    0.46872   1.00
C6       -0.34644   0.62415    0.46573   1.00
C6       -0.24516   0.68798    0.44292   1.00
H2       -0.29396   0.76776    0.47211   1.00
C6       -0.25444   0.82820    0.49861   1.00
C6       -0.19534   0.85218    0.46510   1.00
H2       -0.21316   0.88542    0.55050   1.00
H2       -0.23874   0.87507    0.57620   1.00
H2       -0.26107   0.92150    0.55934   1.00
H2       -0.39469   0.84634    0.56016   1.00
H2       -0.42541   0.76319    0.56939   1.00
H2       -0.36272   0.83348    0.58289   1.00
H2       -0.43017   0.56454    0.52920   1.00
H2       -0.35228   0.59264    0.54148   1.00
H2       -0.42619   0.57234    0.55584   1.00
H2       -0.45185   0.71378    0.53614   1.00
H2       -0.49041   0.62766    0.52955   1.00
H2       -0.47821   0.65063    0.55542   1.00
H2       -0.41425   0.66412    0.58960   1.00
H2       -0.35583   0.67869    0.60938   1.00
H2       -0.35919   0.74731    0.59908   1.00
H2       -0.34885   0.59757    0.58257   1.00
H2       -0.27173   0.63773    0.56930   1.00
H2       -0.27190   0.64875    0.59552   1.00
H2       -0.09258   0.78373    0.51448   1.00
H2       -0.04017   0.84027    0.49560   1.00
H2       -0.11029   0.84558    0.50455   1.00
H2       -0.05562   0.73563    0.47802   1.00
H2       -0.11851   0.67678    0.49439   1.00
H2       -0.13397   0.67386    0.46807   1.00
H2       -0.36589   0.57973    0.45574   1.00
H2       -0.36588   0.60493    0.48092   1.00
H2       -0.36819   0.65516    0.46073   1.00
H2       -0.18986   0.71533    0.44109   1.00
H2       -0.26549   0.64358    0.43289   1.00
H2       -0.26473   0.72062    0.43761   1.00
H2       -0.20860   0.85354    0.50794   1.00
H2       -0.26900   0.86581    0.49437   1.00
H2       -0.29526   0.79034    0.50798   1.00
H2       -0.21717   0.88404    0.46094   1.00
H2       -0.14598   0.88515    0.47224   1.00
H2       -0.18655   0.83266    0.45099   1.00
C4       0.31379    0.17337    0.55132   1.00
C4       0.36922    0.19852    0.53726   1.00
C3       0.31944    0.20022    0.57114   1.00
C3       0.43715    0.24868    0.54223   1.00
C3       0.24910    0.11758    0.54551   1.00
C3       0.35668    0.17260    0.51703   1.00
C2       0.20017    0.11747    0.57922   1.00
C2       0.47883    0.24561    0.50809   1.00
C3       0.26435    0.17283    0.58476   1.00
C3       0.49035    0.27206    0.52801   1.00
C3       0.19380    0.09151    0.55934   1.00
C3       0.41153    0.19472    0.50318   1.00
H1       0.36368    0.24061    0.57625   1.00
H1       0.45008    0.26939    0.55637   1.00
C5       0.23999    0.08839    0.52591   1.00
C5       0.28969    0.12436    0.51075   1.00
H1       0.27159    0.19403    0.59895   1.00
H1       0.53835    0.30884    0.53241   1.00
H1       0.14720    0.05273    0.55476   1.00
H1       0.40249    0.17251    0.48917   1.00
O3       0.18149    0.02790    0.52156   1.00
O3       0.27411    0.10888    0.49047   1.00
Si1      0.18039    -0.04429   0.52436   1.00
Si1      0.25554    0.15745    0.47679   1.00
C6       0.09221    -0.09844   0.52024   1.00
C6       0.22885    -0.05067   0.50444   1.00
C6       0.20434    -0.05549   0.54892   1.00
C6       0.25917    0.22953    0.48843   1.00
C6       0.31544    0.18413    0.45703   1.00
C6       0.17408    0.10476    0.46631   1.00
C6       0.04379    -0.07973   0.53211   1.00
H2       0.08679    -0.08895   0.50429   1.00
C6       0.05857    -0.17792   0.52222   1.00
H2       0.22516    -0.01827   0.49285   1.00
C6       0.30690    -0.02173   0.50792   1.00
C6       0.20279    -0.12164   0.49407   1.00
H2       0.17391    -0.04165   0.55858   1.00
C6       0.18526    -0.12966   0.55524   1.00
C6       0.28046    -0.01028   0.55597   1.00
C6       0.21435    0.21791    0.50769   1.00
C6       0.33020    0.29387    0.49294   1.00
H2       0.23751    0.24725    0.47675   1.00
H2       0.36369    0.21877    0.46444   1.00
C6       0.32631    0.12750    0.44706   1.00
C6       0.30721    0.22511    0.43924   1.00
H2       0.18375    0.08112    0.45326   1.00
C6       0.12258    0.04395    0.47970   1.00
C6       0.13411    0.13945    0.45792   1.00
H2       0.05634    -0.02728   0.52911   1.00
H2       0.04713    -0.08534   0.54847   1.00
H2       -0.00935   -0.11240   0.52755   1.00
H2       0.01653    -0.20320   0.51143   1.00
H2       0.09407    -0.19599   0.51926   1.00
H2       0.03685    -0.19623   0.53726   1.00
H2       0.33316    -0.01548   0.49347   1.00
H2       0.33119    0.02834    0.51502   1.00
H2       0.31607    -0.05606   0.51730   1.00
H2       0.15103    -0.14228   0.48828   1.00
H2       0.23439    -0.11763   0.48101   1.00
H2       0.20398    -0.15822   0.50463   1.00
H2       0.20424    -0.15216   0.54421   1.00
H2       0.20621    -0.13097   0.57009   1.00
H2       0.13045    -0.16236   0.55677   1.00
H2       0.31171    -0.03258   0.55173   1.00
H2       0.30524    0.04097    0.54985   1.00
H2       0.28279    -0.00531   0.57250   1.00
H2       0.23921    0.21435    0.52141   1.00
H2       0.20521    0.26057    0.50983   1.00
H2       0.16464    0.17194    0.50654   1.00
H2       0.32405    0.33702    0.49741   1.00
H2       0.35697    0.28525    0.50525   1.00
H2       0.36328    0.31053    0.47965   1.00
H2       0.37198    0.15052    0.43753   1.00
H2       0.33385    0.09702    0.45853   1.00
H2       0.28322    0.09309    0.43758   1.00
H2       0.30134    0.26729    0.44479   1.00
H2       0.35248    0.24728    0.42953   1.00
H2       0.26334    0.19237    0.42973   1.00
H2       0.11062    0.06105    0.49377   1.00
H2       0.07488    0.01161    0.47165   1.00
H2       0.14402    0.01201    0.48365   1.00
H2       0.08970    0.10316    0.44913   1.00
H2       0.11584    0.15859    0.47021   1.00
H2       0.16553    0.18184    0.44782   1.00
C4       0.83109    0.14631    0.55188   1.00
C4       0.80591    0.17564    0.53749   1.00
C3       0.87155    0.18211    0.56892   1.00
C3       0.82375    0.24534    0.53767   1.00
C3       0.81618    0.07770    0.54905   1.00
C3       0.76014    0.13342    0.52202   1.00
C2       0.88291    0.08449    0.57972   1.00
C2       0.75401    0.23143    0.50759   1.00
C3       0.89709    0.15223    0.58240   1.00
C3       0.79804    0.27236    0.52325   1.00
C3       0.84135    0.04806    0.56304   1.00
C3       0.73713    0.16230    0.50712   1.00
H1       0.88346    0.23086    0.57208   1.00
H1       0.85629    0.27863    0.54819   1.00
C5       0.77597    0.03906    0.53233   1.00
C5       0.73802    0.06281    0.52137   1.00
H1       0.92649    0.18077    0.59437   1.00
H1       0.81225    0.32300    0.52422   1.00
H1       0.82867    -0.00180   0.56113   1.00
H1       0.70791    0.13240    0.49540   1.00
O3       0.77120    -0.02255   0.52774   1.00
O3       0.68402    0.01882    0.50922   1.00
Si1      0.82337    -0.02563   0.51124   1.00
Si1      0.60653    -0.01271   0.51788   1.00
C6       0.79976    -0.11179   0.51516   1.00
C6       0.79818    -0.01345   0.48702   1.00
C6       0.91013    0.02944    0.51717   1.00
C6       0.59529    0.01340    0.54216   1.00
C6       0.56712    0.01234    0.49957   1.00
C6       0.56809    -0.10219   0.51695   1.00
C6       0.79522    -0.13452   0.53784   1.00
H2       0.74735    -0.13867   0.50956   1.00
C6       0.83721    -0.14456   0.50375   1.00
H2       0.74429    -0.03059   0.48939   1.00
C6       0.83048    0.06094    0.47861   1.00
C6       0.80048    -0.05684   0.46888   1.00
H2       0.91201    0.01851    0.53323   1.00
C6       0.96376    0.01588    0.50630   1.00
C6       0.94105    0.10874    0.51542   1.00
C6       0.63181    0.00184    0.56058   1.00
C6       0.60463    0.08630    0.54496   1.00
H2       0.54091    -0.02052   0.54483   1.00
H2       0.59102    0.06736    0.50168   1.00
C6       0.58088    0.00239    0.47689   1.00
C6       0.48852    -0.01693   0.50156   1.00
H2       0.55218    -0.11480   0.50117   1.00
C6       0.61578    -0.13217   0.52098   1.00
C6       0.50256    -0.14559   0.53003   1.00
H2       0.76083    -0.12361   0.54659   1.00
H2       0.84526    -0.10850   0.54514   1.00
H2       0.77534    -0.18945   0.53899   1.00
H2       0.80143    -0.19836   0.50063   1.00
H2       0.85894    -0.11998   0.48933   1.00
H2       0.87844    -0.14300   0.51276   1.00
H2       0.80078    0.06310    0.46584   1.00
H2       0.83138    0.09632    0.48994   1.00
H2       0.88240    0.07942    0.47322   1.00
H2       0.77042    -0.11135   0.47206   1.00
H2       0.77874    -0.04831   0.45512   1.00
H2       0.85283    -0.04370   0.46542   1.00
H2       0.95753    0.01426    0.48985   1.00
H2       1.01619    0.05518    0.50981   1.00
H2       0.95968    -0.03168   0.51135   1.00
H2       0.95972    0.12747    0.50016   1.00
H2       0.90527    0.12552    0.51927   1.00
H2       0.98441    0.13505    0.52574   1.00
H2       0.68459    0.04267    0.56196   1.00
H2       0.60624    0.00075    0.57476   1.00
H2       0.63135    -0.04636   0.55954   1.00
H2       0.58671    0.09119    0.55994   1.00
H2       0.65773    0.12630    0.54381   1.00
H2       0.57514    0.09686    0.53395   1.00
H2       0.56432    0.02973    0.46682   1.00
H2       0.63524    0.02282    0.47406   1.00
H2       0.55384    -0.05120   0.47245   1.00
H2       0.47431    -0.01032   0.51685   1.00
H2       0.47181    0.00974    0.49126   1.00
H2       0.45998    -0.07107   0.49771   1.00
H2       0.63736    -0.12061   0.53622   1.00
H2       0.58898    -0.18744   0.51895   1.00
H2       0.65776    -0.11082   0.51025   1.00
H2       0.47790    -0.19947   0.52582   1.00
H2       0.51468    -0.14185   0.54619   1.00
H2       0.46489    -0.12963   0.52781   1.00
C4       0.68539    -0.14754   0.94831   1.00
C4       0.63098    -0.17644   0.96273   1.00
C3       0.70285    -0.18704   0.93557   1.00
C3       0.59270    -0.24723   0.96716   1.00
C3       0.72562    -0.07512   0.94662   1.00
C3       0.61321    -0.13267   0.97340   1.00
C2       0.79832    -0.08520   0.92024   1.00
C2       0.52268    -0.23072   0.99245   1.00
C3       0.75798    -0.15678   0.92200   1.00
C3       0.53962    -0.27374   0.98147   1.00
C3       0.78022    -0.04560   0.93256   1.00
C3       0.56150    -0.16005   0.98838   1.00
H1       0.67588    -0.23896   0.93572   1.00
H1       0.60253    -0.28158   0.96021   1.00
C5       0.71085    -0.03268   0.95891   1.00
C5       0.64744    -0.06179   0.96922   1.00
H1       0.76851    -0.18794   0.91327   1.00
H1       0.51330    -0.32544   0.98391   1.00
H1       0.80743    0.00638    0.93111   1.00
H1       0.55234    -0.12754   0.99680   1.00
O3       0.75623    0.03642    0.95970   1.00
O3       0.62251    -0.02097   0.97627   1.00
Si1      0.81418    0.06735    0.97747   1.00
Si1      0.56420    -0.01595   0.96308   1.00
C6       0.86038    0.15137    0.96798   1.00
C6       0.77262    0.06435    1.00039   1.00
C6       0.86526    0.02873    0.97833   1.00
C6       0.53351    -0.06553   0.94078   1.00
C6       0.49702    -0.04152   0.98047   1.00
C6       0.59603    0.07085    0.95746   1.00
C6       0.87758    0.15818    0.94476   1.00
H2       0.82391    0.16921    0.96975   1.00
C6       0.92750    0.20656    0.97862   1.00
H2       0.72755    0.06530    0.99499   1.00
C6       0.74521    -0.00099   1.01388   1.00
C6       0.80869    0.12562    1.01548   1.00
H2       0.87878    0.02942    0.96238   1.00
C6       0.93439    0.06738    0.99017   1.00
C6       0.83319    -0.04725   0.98565   1.00
C6       0.58627    -0.05560   0.92392   1.00
C6       0.48354    -0.14426   0.94250   1.00
H2       0.50194    -0.04665   0.93414   1.00
H2       0.47797    -0.09594   0.98245   1.00
C6       0.51727    -0.00997   1.00224   1.00
C6       0.43463    -0.03440   0.97377   1.00
H2       0.58662    0.09144    0.97127   1.00
C6       0.67441    0.11472    0.95385   1.00
C6       0.56150    0.08913    0.93986   1.00
H2       0.83166    0.12966    0.93558   1.00
H2       0.91237    0.13931    0.94121   1.00
H2       0.90147    0.21129    0.93980   1.00
H2       0.93224    0.25686    0.97719   1.00
H2       0.92900    0.19678    0.99470   1.00
H2       0.97318    0.21049    0.97172   1.00
H2       0.70865    -0.00279   1.02507   1.00
H2       0.71837    -0.04758   1.00501   1.00
H2       0.78653    -0.00177   1.02218   1.00
H2       0.82125    0.17377    1.00819   1.00
H2       0.77551    0.11995    1.02829   1.00
H2       0.85522    0.12936    1.02164   1.00
H2       0.92646    0.07936    1.00562   1.00
H2       0.96023    0.03754    0.99109   1.00
H2       0.97023    0.11430    0.98251   1.00
H2       0.83605    -0.05095   1.00209   1.00
H2       0.78014    -0.07898   0.98145   1.00
H2       0.86080    -0.07063   0.97895   1.00
H2       0.61092    -0.08545   0.92698   1.00
H2       0.56091    -0.07239   0.90921   1.00
H2       0.62576    -0.00244   0.92222   1.00
H2       0.46179    -0.16589   0.92768   1.00
H2       0.50886    -0.17126   0.94797   1.00
H2       0.44049    -0.15645   0.95247   1.00
H2       0.47469    -0.03729   1.01276   1.00
H2       0.56005    -0.01403   1.00828   1.00
H2       0.53132    0.04367    1.00244   1.00
H2       0.41560    -0.05703   0.95888   1.00
H2       0.39241    -0.06087   0.98447   1.00
H2       0.44756    0.01896    0.97331   1.00
H2       0.69090    0.09736    0.94073   1.00
H2       0.69048    0.16850    0.95165   1.00
H2       0.70156    0.11177    0.96702   1.00
H2       0.57846    0.14362    0.93992   1.00
H2       0.57415    0.07680    0.92504   1.00
H2       0.50616    0.06218    0.94136   1.00
C4       0.17336    0.31381    0.94867   1.00
C4       0.19850    0.36924    0.96273   1.00
C3       0.19988    0.31960    0.92879   1.00
C3       0.24830    0.43727    0.95772   1.00
C3       0.11792    0.24898    0.95453   1.00
C3       0.17297    0.35659    0.98301   1.00
C2       0.11748    0.20019    0.92078   1.00
C2       0.24560    0.47881    0.99191   1.00
C3       0.17250    0.26450    0.91518   1.00
C3       0.27169    0.49046    0.97195   1.00
C3       0.09186    0.19368    0.94071   1.00
C3       0.19507    0.41141    0.99687   1.00
H1       0.24002    0.36396    0.92365   1.00
H1       0.26873    0.45027    0.94355   1.00
C5       0.08906    0.23973    0.97419   1.00
C5       0.12512    0.28951    0.98932   1.00
H1       0.19345    0.27185    0.90095   1.00
H1       0.30819    0.53853    0.96752   1.00
H1       0.05333    0.14699    0.94532   1.00
H1       0.17311    0.40227    1.01092   1.00
O3       0.02885    0.18103    0.97861   1.00
O3       0.11008    0.27390    1.00962   1.00
Si1      -0.04362   0.17948    0.97597   1.00
Si1      0.15918    0.25571    1.02317   1.00
C6       -0.09731   0.09124    0.98012   1.00
C6       -0.04995   0.22775    0.99596   1.00
C6       -0.05548   0.20326    0.95146   1.00
C6       0.23124    0.25977    1.01138   1.00
C6       0.18594    0.31560    1.04293   1.00
C6       0.10704    0.17418    1.03369   1.00
C6       -0.07845   0.04308    0.96816   1.00
H2       -0.08745   0.08591    0.99604   1.00
C6       -0.17686   0.05719    0.97827   1.00
H2       -0.01720   0.22429    1.00747   1.00
C6       -0.02149   0.30574    0.99250   1.00
C6       -0.12078   0.20134    1.00645   1.00
H2       -0.04159   0.17301    0.94174   1.00
C6       -0.12988   0.18377    0.94528   1.00
C6       -0.01074   0.27942    0.94439   1.00
C6       0.21950    0.21501    0.99210   1.00
C6       0.29525    0.33098    1.00680   1.00
H2       0.24938    0.23831    1.02300   1.00
H2       0.22024    0.36391    1.03550   1.00
C6       0.12925    0.32608    1.05304   1.00
C6       0.22744    0.30767    1.06063   1.00
H2       0.08351    0.18367    1.04680   1.00
C6       0.04611    0.12244    1.02037   1.00
C6       0.14225    0.13456    1.04196   1.00
H2       -0.02586   0.05593    0.97106   1.00
H2       -0.08441   0.04636    0.95182   1.00
H2       -0.11080   -0.01009   0.97273   1.00
H2       -0.20174   0.01513    0.98908   1.00
H2       -0.19515   0.09247    0.98132   1.00
H2       -0.19537   0.03542    0.96325   1.00
H2       -0.01510   0.33196    1.00696   1.00
H2       0.02845    0.33026    0.98531   1.00
H2       -0.05616   0.31466    0.98320   1.00
H2       -0.14105   0.14961    1.01224   1.00
H2       -0.11671   0.23287    1.01954   1.00
H2       -0.15768   0.20228    0.99598   1.00
H2       -0.15236   0.20255    0.95639   1.00
H2       -0.13161   0.20463    0.93046   1.00
H2       -0.16237   0.12893    0.94377   1.00
H2       -0.03323   0.31043    0.94871   1.00
H2       0.04062    0.30445    0.95042   1.00
H2       -0.00609   0.28176    0.92785   1.00
H2       0.21551    0.23976    0.97842   1.00
H2       0.26231    0.20616    0.98986   1.00
H2       0.17373    0.16517    0.99329   1.00
H2       0.33848    0.32512    1.00223   1.00
H2       0.28619    0.35760    0.99453   1.00
H2       0.31200    0.36407    1.02009   1.00
H2       0.15223    0.37176    1.06257   1.00
H2       0.09841    0.33339    1.04165   1.00
H2       0.09519    0.28291    1.06256   1.00
H2       0.26968    0.30208    1.05498   1.00
H2       0.24957    0.35294    1.07033   1.00
H2       0.19505    0.26374    1.07016   1.00
H2       0.06307    0.11062    1.00625   1.00
H2       0.01413    0.07470    1.02844   1.00
H2       0.01386    0.14361    1.01651   1.00
H2       0.10629    0.09007    1.05078   1.00
H2       0.16133    0.11646    1.02961   1.00
H2       0.18477    0.16616    1.05199   1.00
C4       0.14631    0.83110    0.94812   1.00
C4       0.17564    0.80591    0.96251   1.00
C3       0.18213    0.87160    0.93109   1.00
C3       0.24535    0.82380    0.96234   1.00
C3       0.07769    0.81613    0.95094   1.00
C3       0.13341    0.76010    0.97797   1.00
C2       0.08449    0.88291    0.92028   1.00
C2       0.23143    0.75401    0.99241   1.00
C3       0.15225    0.89713    0.91761   1.00
C3       0.27237    0.79809    0.97676   1.00
C3       0.04805    0.84131    0.93696   1.00
C3       0.16229    0.73708    0.99287   1.00
H1       0.23090    0.88354    0.92793   1.00
H1       0.27865    0.85636    0.95182   1.00
C5       0.03902    0.77588    0.96765   1.00
C5       0.06279    0.73794    0.97861   1.00
H1       0.18080    0.92657    0.90564   1.00
H1       0.32303    0.81232    0.97580   1.00
H1       -0.00183   0.82859    0.93885   1.00
H1       0.13237    0.70783    1.00458   1.00
O3       -0.02261   0.77107    0.97223   1.00
O3       0.01880    0.68391    0.99075   1.00
Si1      -0.02576   0.82318    0.98874   1.00
Si1      -0.01267   0.60643    0.98207   1.00
C6       -0.11192   0.79953    0.98481   1.00
C6       -0.01360   0.79796    1.01296   1.00
C6       0.02928    0.90996    0.98283   1.00
C6       0.01350    0.59526    0.95780   1.00
C6       0.01238    0.56702    1.00039   1.00
C6       -0.10216   0.56795    0.98299   1.00
C6       -0.13462   0.79502    0.96213   1.00
H2       -0.13878   0.74711    0.99039   1.00
C6       -0.14475   0.83692    0.99622   1.00
H2       -0.03071   0.74408    1.01058   1.00
C6       0.06077    0.83028    1.02138   1.00
C6       -0.05705   0.80019    1.03110   1.00
H2       0.01838    0.91187    0.96677   1.00
C6       0.01566    0.96354    0.99370   1.00
C6       0.10858    0.94092    0.98459   1.00
C6       0.00195    0.63180    0.93938   1.00
C6       0.08642    0.60465    0.95500   1.00
H2       -0.02039   0.54089    0.95512   1.00
H2       0.06740    0.59095    0.99828   1.00
C6       0.00237    0.58072    1.02306   1.00
C6       -0.01684   0.48843    0.99838   1.00
H2       -0.11479   0.55200    0.99877   1.00
C6       -0.13217   0.61561    0.97896   1.00
C6       -0.14551   0.50244    0.96989   1.00
H2       -0.12366   0.76067    0.95337   1.00
H2       -0.10860   0.84507    0.95484   1.00
H2       -0.18954   0.77511    0.96097   1.00
H2       -0.19855   0.80111    0.99933   1.00
H2       -0.12020   0.85863    1.01064   1.00
H2       -0.14320   0.87816    0.98722   1.00
H2       0.06293    0.80056    1.03414   1.00
H2       0.09619    0.83123    1.01005   1.00
H2       0.07922    0.88218    1.02678   1.00
H2       -0.11155   0.77011    1.02790   1.00
H2       -0.04852   0.77844    1.04485   1.00
H2       -0.04394   0.85253    1.03457   1.00
H2       0.01401    0.95728    1.01015   1.00
H2       0.05494    1.01598    0.99021   1.00
H2       -0.03191   0.95944    0.98864   1.00
H2       0.12729    0.95956    0.99985   1.00
H2       0.12540    0.90517    0.98074   1.00
H2       0.13490    0.98430    0.97428   1.00
H2       0.04276    0.68459    0.93801   1.00
H2       0.00090    0.60627    0.92519   1.00
H2       -0.04627   0.63131    0.94041   1.00
H2       0.09136    0.58678    0.94002   1.00
H2       0.12640    0.65776    0.95617   1.00
H2       0.09698    0.57517    0.96601   1.00
H2       0.02970    0.56417    1.03314   1.00
H2       0.02276    0.63507    1.02590   1.00
H2       -0.05123   0.55365    1.02749   1.00
H2       -0.01020   0.47426    0.98309   1.00
H2       0.00982    0.47172    1.00869   1.00
H2       -0.07099   0.45985    1.00222   1.00
H2       -0.12060   0.63722    0.96373   1.00
H2       -0.18745   0.58878    0.98098   1.00
H2       -0.11086   0.65756    0.98970   1.00
H2       -0.19940   0.47774    0.97410   1.00
H2       -0.14174   0.51459    0.95374   1.00
H2       -0.12952   0.46479    0.97212   1.00
C4       0.14460    0.30901    0.45025   1.00
C4       0.17435    0.36506    0.46411   1.00
C3       0.16894    0.26267    0.44749   1.00
C3       0.23501    0.38402    0.47521   1.00
C3       0.08796    0.29883    0.43816   1.00
C3       0.14205    0.40466    0.46722   1.00
C2       0.08377    0.19895    0.42118   1.00
C2       0.23215    0.48005    0.49151   1.00
C3       0.13965    0.20939    0.43328   1.00
C3       0.26280    0.43953    0.48868   1.00
C3       0.05832    0.24400    0.42418   1.00
C3       0.17247    0.46216    0.48020   1.00
H1       0.20851    0.26613    0.45578   1.00
H1       0.26103    0.35834    0.47374   1.00
C5       0.06112    0.34331    0.44017   1.00
C5       0.07996    0.38716    0.45725   1.00
H1       0.15973    0.17777    0.43185   1.00
H1       0.30644    0.45051    0.49643   1.00
H1       0.01653    0.23620    0.41602   1.00
H1       0.15111    0.49255    0.48127   1.00
O3       0.01436    0.34046    0.42626   1.00
O3       0.04111    0.41584    0.46300   1.00
Si1      0.04034    0.39088    0.40654   1.00
Si1      -0.01244   0.38175    0.48178   1.00
C6       -0.03873   0.35412    0.39378   1.00
C6       0.06503    0.47375    0.41517   1.00
C6       0.10229    0.38422    0.39203   1.00
C6       -0.01598   0.31126    0.49447   1.00
C6       0.01361    0.44983    0.49885   1.00
C6       -0.09377   0.36031    0.47256   1.00
C6       -0.07840   0.27434    0.39221   1.00
H2       -0.06922   0.36650    0.40388   1.00
C6       -0.04506   0.38004    0.37225   1.00
H2       0.03489    0.46325    0.42899   1.00
C6       0.14091    0.52125    0.42172   1.00
C6       0.04685    0.51974    0.40188   1.00
H2       0.07971    0.32903    0.39050   1.00
C6       0.11521    0.41330    0.36990   1.00
C6       0.17583    0.41166    0.40096   1.00
C6       -0.03203   0.24686    0.48164   1.00
C6       0.04266    0.32297    0.50943   1.00
H2       -0.06002   0.29493    0.50440   1.00
H2       0.06232    0.45801    0.50460   1.00
C6       0.02940    0.51974    0.48944   1.00
C6       -0.03247   0.43802    0.51782   1.00
H2       -0.09408   0.40835    0.47301   1.00
C6       -0.10889   0.33669    0.45001   1.00
C6       -0.15765   0.30801    0.48499   1.00
H2       -0.08648   0.25056    0.40713   1.00
H2       -0.05073   0.25630    0.38287   1.00
H2       -0.12888   0.25547    0.38552   1.00
H2       -0.09504   0.37592    0.37059   1.00
H2       -0.00672   0.43293    0.36951   1.00
H2       -0.04093   0.34971    0.36003   1.00
H2       0.14616    0.56435    0.43064   1.00
H2       0.15954    0.49483    0.43126   1.00
H2       0.17429    0.54198    0.40854   1.00
H2       -0.00779   0.49482    0.39886   1.00
H2       0.06022    0.56758    0.40962   1.00
H2       0.07433    0.53267    0.38747   1.00
H2       0.12689    0.46630    0.36977   1.00
H2       0.15756    0.41129    0.36259   1.00
H2       0.07136    0.38332    0.36022   1.00
H2       0.20941    0.46571    0.39771   1.00
H2       0.17647    0.40550    0.41723   1.00
H2       0.19928    0.38420    0.39421   1.00
H2       0.01354    0.25215    0.47435   1.00
H2       -0.05228   0.20168    0.49133   1.00
H2       -0.07002   0.23625    0.46995   1.00
H2       0.02854    0.27666    0.51815   1.00
H2       0.08990    0.33621    0.50156   1.00
H2       0.05316    0.36281    0.52051   1.00
H2       0.05599    0.56092    0.50044   1.00
H2       0.06271    0.53265    0.47621   1.00
H2       -0.01692   0.51962    0.48482   1.00
H2       -0.04451   0.39104    0.52576   1.00
H2       -0.00626   0.47975    0.52869   1.00
H2       -0.08016   0.43590    0.51362   1.00
H2       -0.10745   0.28989    0.44737   1.00
H2       -0.15865   0.32827    0.44516   1.00
H2       -0.07108   0.37592    0.44022   1.00
H2       -0.20377   0.30700    0.47954   1.00
H2       -0.16580   0.25635    0.48367   1.00
H2       -0.15277   0.32134    0.50103   1.00
C4       0.68830    0.82702    0.44941   1.00
C4       0.63363    0.80202    0.46374   1.00
C3       0.74156    0.81123    0.45017   1.00
C3       0.63009    0.76394    0.48127   1.00
C3       0.69096    0.87117    0.43354   1.00
C3       0.57903    0.81533    0.46050   1.00
C2       0.79889    0.88235    0.42045   1.00
C2       0.52211    0.75457    0.49224   1.00
C3       0.79555    0.83841    0.43617   1.00
C3       0.57556    0.74031    0.49503   1.00
C3       0.74518    0.89704    0.41934   1.00
C3       0.52606    0.79357    0.47501   1.00
H1       0.74256    0.77933    0.46088   1.00
H1       0.66722    0.75262    0.48463   1.00
C5       0.63930    0.88896    0.43190   1.00
C5       0.57780    0.85078    0.44294   1.00
H1       0.83290    0.82558    0.43757   1.00
H1       0.57541    0.71251    0.50735   1.00
H1       0.74541    0.92712    0.40770   1.00
H1       0.48968    0.80726    0.47315   1.00
O3       0.64787    0.94007    0.41880   1.00
O3       0.51971    0.85243    0.43747   1.00
Si1      0.68067    1.01822    0.42708   1.00
Si1      0.46124    0.78940    0.42422   1.00
C6       0.68898    1.05738    0.40329   1.00
C6       0.61829    1.02198    0.44213   1.00
C6       0.76077    1.04894    0.43889   1.00
C6       0.47383    0.72036    0.41825   1.00
C6       0.38797    0.76021    0.43931   1.00
C6       0.44879    0.82447    0.40188   1.00
C6       0.72193    1.03576    0.38601   1.00
H2       0.63586    1.03690    0.39877   1.00
C6       0.72285    1.13690    0.40138   1.00
H2       0.57120    0.98005    0.43598   1.00
C6       0.61670    1.00740    0.46538   1.00
C6       0.61019    1.08654    0.44056   1.00
H2       0.78772    1.03445    0.42801   1.00
C6       0.80598    1.12801    0.44170   1.00
C6       0.76511    1.01883    0.45995   1.00
C6       0.53997    0.73598    0.40644   1.00
C6       0.46400    0.66751    0.43513   1.00
H2       0.43200    0.69073    0.40774   1.00
H2       0.39797    0.73650    0.45226   1.00
C6       0.37498    0.81644    0.44853   1.00
C6       0.31869    0.70468    0.43001   1.00
H2       0.41520    0.84361    0.40657   1.00
C6       0.51305    0.88767    0.39295   1.00
C6       0.41240    0.77545    0.38358   1.00
H2       0.69462    0.98054    0.38385   1.00
H2       0.77515    1.05199    0.38942   1.00
H2       0.72042    1.05818    0.37147   1.00
H2       0.69884    1.14978    0.38909   1.00
H2       0.71817    1.16075    0.41512   1.00
H2       0.77707    1.16131    0.39770   1.00
H2       0.56818    0.99696    0.47205   1.00
H2       0.62153    0.96279    0.46846   1.00
H2       0.65726    1.05106    0.47338   1.00
H2       0.60074    1.09570    0.42496   1.00
H2       0.56655    1.08027    0.44942   1.00
H2       0.65549    1.13184    0.44626   1.00
H2       0.77801    1.14883    0.44959   1.00
H2       0.85235    1.14196    0.45038   1.00
H2       0.82370    1.15376    0.42721   1.00
H2       0.75799    1.04566    0.47263   1.00
H2       0.72792    0.96526    0.46174   1.00
H2       0.81538    1.02373    0.46181   1.00
H2       0.58337    0.75236    0.41658   1.00
H2       0.53288    0.69028    0.39863   1.00
H2       0.55347    0.77516    0.39493   1.00
H2       0.46399    0.62320    0.42851   1.00
H2       0.50461    0.68878    0.44636   1.00
H2       0.41540    0.64794    0.44300   1.00
H2       0.33564    0.79461    0.46028   1.00
H2       0.42089    0.85695    0.45575   1.00
H2       0.35816    0.83961    0.43708   1.00
H2       0.32239    0.66210    0.42370   1.00
H2       0.27910    0.68358    0.44170   1.00
H2       0.30128    0.72593    0.41810   1.00
H2       0.55210    0.87565    0.38834   1.00
H2       0.50024    0.90865    0.37985   1.00
H2       0.53527    0.92780    0.40426   1.00
H2       0.39843    0.80078    0.37197   1.00
H2       0.44539    0.75907    0.37644   1.00
H2       0.36538    0.73013    0.38823   1.00
C4       0.16823    -0.14039   0.45043   1.00
C4       0.19353    -0.17068   0.46444   1.00
C3       0.12119    -0.11887   0.45579   1.00
C3       0.16968    -0.18813   0.48469   1.00
C3       0.19004    -0.13184   0.42979   1.00
C3       0.24571    -0.18440   0.45805   1.00
C2       0.11689    -0.08270   0.42098   1.00
C2       0.24619    -0.23322   0.49171   1.00
C3       0.09590    -0.09118   0.44146   1.00
C3       0.19571    -0.21795   0.49802   1.00
C3       0.16491    -0.10261   0.41565   1.00
C3       0.26917    -0.21714   0.47144   1.00
H1       0.10410    -0.12248   0.47028   1.00
H1       0.13240    -0.18009   0.49032   1.00
C5       0.23703    -0.15226   0.42343   1.00
C5       0.27383    -0.16599   0.43831   1.00
H1       0.06159    -0.07698   0.44619   1.00
H1       0.17695    -0.22893   0.51255   1.00
H1       0.18246    -0.09505   0.40102   1.00
H1       0.30337    -0.23056   0.46623   1.00
O3       0.24913    -0.15455   0.40304   1.00
O3       0.33290    -0.16621   0.43317   1.00
Si1      0.20550    -0.22577   0.39051   1.00
Si1      0.40632    -0.09918   0.43839   1.00
C6       0.23514    -0.19211   0.36607   1.00
C6       0.23560    -0.28077   0.39799   1.00
C6       0.11642    -0.26058   0.39249   1.00
C6       0.40667    -0.03042   0.45119   1.00
C6       0.44667    -0.13246   0.45349   1.00
C6       0.45178    -0.07084   0.41542   1.00
C6       0.23457    -0.12489   0.36077   1.00
H2       0.28894    -0.17740   0.36691   1.00
C6       0.20674    -0.23817   0.34667   1.00
H2       0.28733    -0.24476   0.40300   1.00
C6       0.20037    -0.32960   0.41639   1.00
C6       0.24348    -0.32603   0.38148   1.00
H2       0.11069    -0.21623   0.38950   1.00
C6       0.07068    -0.31580   0.37648   1.00
C6       0.07990    -0.29113   0.41329   1.00
C6       0.36764    0.00291    0.44127   1.00
C6       0.38968    -0.03675   0.47440   1.00
H2       0.46043    0.00881    0.45059   1.00
H2       0.41799    -0.14579   0.46766   1.00
C6       0.44183    -0.20018   0.44580   1.00
C6       0.52300    -0.08340   0.45923   1.00
H2       0.47298    -0.10434   0.41319   1.00
C6       0.40861    -0.08022   0.39601   1.00
C6       0.51373    0.00370    0.41451   1.00
H2       0.26311    -0.08489   0.37192   1.00
H2       0.18255    -0.13364   0.36023   1.00
H2       0.25844    -0.10467   0.34606   1.00
H2       0.24680    -0.22169   0.33520   1.00
H2       0.18833    -0.29174   0.34976   1.00
H2       0.16492    -0.23465   0.33965   1.00
H2       0.23214    -0.34972   0.42214   1.00
H2       0.19242    -0.30357   0.42906   1.00
H2       0.15132    -0.37304   0.41202   1.00
H2       0.27626    -0.29514   0.36907   1.00
H2       0.26742    -0.35370   0.38776   1.00
H2       0.19395    -0.36374   0.37534   1.00
H2       0.08187    -0.35742   0.37603   1.00
H2       0.01627    -0.33782   0.37973   1.00
H2       0.07770    -0.29387   0.36141   1.00
H2       0.06523    -0.34472   0.41493   1.00
H2       0.11070    -0.26458   0.42638   1.00
H2       0.03319    -0.28827   0.41438   1.00
H2       0.31342    -0.02530   0.44483   1.00
H2       0.38738    0.05481    0.44695   1.00
H2       0.37324    0.00642    0.42485   1.00
H2       0.40136    0.01269    0.48066   1.00
H2       0.33603    -0.07194   0.47744   1.00
H2       0.41985    -0.05323   0.48310   1.00
H2       0.45785    -0.22280   0.45772   1.00
H2       0.38948    -0.23810   0.44179   1.00
H2       0.47406    -0.19179   0.43258   1.00
H2       0.53092    -0.03520   0.46536   1.00
H2       0.53930    -0.10648   0.47094   1.00
H2       0.55651    -0.07256   0.44616   1.00
H2       0.38234    -0.05097   0.39672   1.00
H2       0.44003    -0.06514   0.38233   1.00
H2       0.37031    -0.13358   0.39423   1.00
H2       0.54368    0.01153    0.40073   1.00
H2       0.49687    0.04126    0.41450   1.00
H2       0.54831    0.01471    0.42728   1.00
C4       0.31347    0.14002    0.05121   1.00
C4       0.36791    0.16910    0.03680   1.00
C3       0.27941    0.07025    0.05695   1.00
C3       0.38953    0.13020    0.02534   1.00
C3       0.29067    0.18238    0.06026   1.00
C3       0.40325    0.24106    0.03355   1.00
C2       0.20156    0.08439    0.07971   1.00
C2       0.47744    0.23153    0.00760   1.00
C3       0.22475    0.04307    0.07072   1.00
C3       0.44320    0.16059    0.01128   1.00
C3       0.23628    0.15426    0.07440   1.00
C3       0.45524    0.27030    0.01868   1.00
H1       0.29348    0.03717    0.05135   1.00
H1       0.36665    0.07861    0.02678   1.00
C5       0.32254    0.25261    0.05519   1.00
C5       0.38622    0.28344    0.04499   1.00
H1       0.20176    -0.00788   0.07418   1.00
H1       0.45702    0.13000    0.00356   1.00
H1       0.22173    0.18566    0.08120   1.00
H1       0.47707    0.32123    0.01562   1.00
O3       0.29341    0.29053    0.06126   1.00
O3       0.42798    0.35350    0.04505   1.00
Si1      0.24151    0.29947    0.04604   1.00
Si1      0.49225    0.38772    0.06075   1.00
C6       0.21422    0.33994    0.06352   1.00
C6       0.29117    0.35577    0.02654   1.00
C6       0.17266    0.22107    0.03768   1.00
C6       0.50710    0.33299    0.07637   1.00
C6       0.56251    0.43361    0.04466   1.00
C6       0.48256    0.44676    0.07572   1.00
C6       0.19290    0.30596    0.08499   1.00
H2       0.26080    0.38865    0.06601   1.00
C6       0.15830    0.35851    0.05760   1.00
H2       0.34081    0.38493    0.03387   1.00
C6       0.30401    0.32509    0.00689   1.00
C6       0.27262    0.40987    0.01884   1.00
H2       0.15488    0.19228    0.05183   1.00
C6       0.10960    0.22234    0.02840   1.00
C6       0.18628    0.17551    0.02257   1.00
C6       0.44819    0.28255    0.09063   1.00
C6       0.53884    0.29161    0.06694   1.00
H2       0.54700    0.36893    0.08652   1.00
H2       0.56730    0.39405    0.03665   1.00
C6       0.55364    0.47696    0.02769   1.00
C6       0.63317    0.48093    0.05485   1.00
H2       0.50196    0.49198    0.06612   1.00
C6       0.40797    0.42782    0.08093   1.00
C6       0.52358    0.47119    0.09606   1.00
H2       0.23367    0.30058    0.09200   1.00
H2       0.14755    0.25534    0.08408   1.00
H2       0.18176    0.33688    0.09533   1.00
H2       0.16833    0.40546    0.06527   1.00
H2       0.15652    0.36647    0.04140   1.00
H2       0.10725    0.31922    0.06223   1.00
H2       0.34630    0.36472    -0.00187   1.00
H2       0.31792    0.28662    0.01031   1.00
H2       0.25913    0.30246    -0.00290   1.00
H2       0.27217    0.44154    0.03124   1.00
H2       0.31025    0.44483    0.00791   1.00
H2       0.22293    0.38539    0.01135   1.00
H2       0.12498    0.25943    0.01609   1.00
H2       0.07167    0.17257    0.02237   1.00
H2       0.08272    0.23441    0.03984   1.00
H2       0.18494    0.18918    0.00677   1.00
H2       0.23493    0.17825    0.02492   1.00
H2       0.14700    0.12195    0.02434   1.00
H2       0.41198    0.23625    0.08268   1.00
H2       0.46863    0.26694    0.10326   1.00
H2       0.42024    0.30544    0.09720   1.00
H2       0.55372    0.26805    0.07887   1.00
H2       0.50319    0.25063    0.05712   1.00
H2       0.58495    0.32397    0.05827   1.00
H2       0.59464    0.49389    0.01651   1.00
H2       0.50571    0.44710    0.01948   1.00
H2       0.55460    0.52218    0.03383   1.00
H2       0.64470    0.45417    0.06657   1.00
H2       0.67407    0.49868    0.04359   1.00
H2       0.63517    0.52592    0.06161   1.00
H2       0.38179    0.38136    0.08995   1.00
H2       0.40628    0.46875    0.08919   1.00
H2       0.37913    0.41968    0.06704   1.00
H2       0.52153    0.51490    0.10229   1.00
H2       0.50293    0.43088    0.10750   1.00
H2       0.57731    0.48752    0.09387   1.00
C4       0.82675    0.68778    0.05077   1.00
C4       0.80168    0.63319    0.03641   1.00
C3       0.80419    0.73602    0.05169   1.00
C3       0.75627    0.62508    0.02040   1.00
C3       0.87804    0.69570    0.06488   1.00
C3       0.82265    0.58350    0.03802   1.00
C2       0.88244    0.79874    0.07960   1.00
C2       0.75448    0.52226    0.00771   1.00
C3       0.83150    0.79020    0.06562   1.00
C3       0.73279    0.57080    0.00655   1.00
C3       0.90402    0.74996    0.07907   1.00
C3       0.80071    0.53087    0.02339   1.00
H1       0.76707    0.73306    0.04230   1.00
H1       0.73924    0.65859    0.01824   1.00
C5       0.90281    0.64921    0.06478   1.00
C5       0.86583    0.58684    0.05407   1.00
H1       0.81355    0.82381    0.06548   1.00
H1       0.69954    0.56717    -0.00462   1.00
H1       0.93942    0.75389    0.08947   1.00
H1       0.81961    0.49827    0.02399   1.00
O3       0.95977    0.66337    0.07599   1.00
O3       0.87577    0.53262    0.05828   1.00
Si1      1.03500    0.70267    0.06539   1.00
Si1      0.82083    0.47106    0.07272   1.00
C6       1.08317    0.71559    0.08768   1.00
C6       1.04057    0.64404    0.04904   1.00
C6       1.05433    0.78099    0.05407   1.00
C6       0.74938    0.47534    0.08158   1.00
C6       0.79314    0.39850    0.05740   1.00
C6       0.86649    0.46396    0.09331   1.00
C6       1.06292    0.74465    0.10634   1.00
H2       1.06912    0.66354    0.09190   1.00
C6       1.16322    0.75636    0.08716   1.00
H2       1.00400    0.59531    0.05584   1.00
C6       1.01753    0.64021    0.02647   1.00
C6       1.10945    0.64370    0.04793   1.00
H2       1.03998    0.80502    0.06597   1.00
C6       1.13105    0.83222    0.04911   1.00
C6       1.01516    0.78106    0.03439   1.00
C6       0.76254    0.53958    0.09403   1.00
C6       0.68944    0.45968    0.06666   1.00
H2       0.72658    0.43306    0.09234   1.00
H2       0.76285    0.40485    0.04565   1.00
C6       0.85015    0.39231    0.04579   1.00
C6       0.74587    0.32750    0.06741   1.00
H2       0.88854    0.43441    0.08723   1.00
C6       0.92858    0.53166    0.10102   1.00
C6       0.82552    0.42485    0.11267   1.00
H2       1.00894    0.71289    0.11008   1.00
H2       1.07291    0.79634    0.10339   1.00
H2       1.09150    0.74618    0.11989   1.00
H2       1.18351    0.73561    0.09839   1.00
H2       1.18394    0.75421    0.07249   1.00
H2       1.18407    0.81012    0.09096   1.00
H2       1.00963    0.59326    0.01929   1.00
H2       0.96935    0.63967    0.02525   1.00
H2       1.05599    0.68295    0.01764   1.00
H2       1.12539    0.63632    0.06289   1.00
H2       1.10461    0.60174    0.03850   1.00
H2       1.14988    0.69114    0.04142   1.00
H2       1.15313    0.80803    0.03990   1.00
H2       1.13758    0.87707    0.04087   1.00
H2       1.16098    0.85218    0.06286   1.00
H2       1.03963    0.77699    0.02061   1.00
H2       0.96263    0.74009    0.03395   1.00
H2       1.01417    0.82878    0.03336   1.00
H2       0.77144    0.58187    0.08418   1.00
H2       0.71824    0.52805    0.10342   1.00
H2       0.80594    0.55699    0.10422   1.00
H2       0.64542    0.45492    0.07496   1.00
H2       0.70338    0.49986    0.05549   1.00
H2       0.67159    0.41160    0.05863   1.00
H2       0.82760    0.35256    0.03418   1.00
H2       0.88499    0.43974    0.03797   1.00
H2       0.88011    0.37945    0.05594   1.00
H2       0.70314    0.32640    0.07540   1.00
H2       0.72413    0.28760    0.05582   1.00
H2       0.77405    0.31389    0.07807   1.00
H2       0.91335    0.56714    0.10684   1.00
H2       0.95640    0.52238    0.11296   1.00
H2       0.96421    0.55668    0.08867   1.00
H2       0.85749    0.41491    0.12294   1.00
H2       0.80726    0.45423    0.12106   1.00
H2       0.78170    0.37547    0.10887   1.00
C4       -0.14040   0.16822    0.04957   1.00
C4       -0.17069   0.19352    0.03556   1.00
C3       -0.11897   0.12110    0.04421   1.00
C3       -0.18823   0.16960    0.01532   1.00
C3       -0.13175   0.19011    0.07020   1.00
C3       -0.18431   0.24578    0.04194   1.00
C2       -0.08270   0.11688    0.07902   1.00
C2       -0.23322   0.24620    0.00829   1.00
C3       -0.09127   0.09582    0.05854   1.00
C3       -0.21805   0.19564    0.00199   1.00
C3       -0.10252   0.16498    0.08435   1.00
C3       -0.21705   0.26924    0.02855   1.00
H1       -0.12264   0.10395    0.02973   1.00
H1       -0.18025   0.13227    0.00969   1.00
C5       -0.15208   0.23718    0.07656   1.00
C5       -0.16580   0.27396    0.06167   1.00
H1       -0.07715   0.06146    0.05382   1.00
H1       -0.22910   0.17683    -0.01253   1.00
H1       -0.09489   0.18258    0.09897   1.00
H1       -0.23040   0.30349    0.03375   1.00
O3       -0.15428   0.24937    0.09694   1.00
O3       -0.16594   0.33309    0.06679   1.00
Si1      -0.22547   0.20584    0.10950   1.00
Si1      -0.09888   0.40645    0.06155   1.00
C6       -0.19170   0.23554    0.13393   1.00
C6       -0.28042   0.23600    0.10202   1.00
C6       -0.26037   0.11674    0.10754   1.00
C6       -0.03020   0.40667    0.04873   1.00
C6       -0.13214   0.44681    0.04645   1.00
C6       -0.07042   0.45198    0.08450   1.00
C6       -0.12451   0.23491    0.13921   1.00
H2       -0.17694   0.28936    0.13307   1.00
C6       -0.23770   0.20726    0.15334   1.00
H2       -0.24438   0.28770    0.09700   1.00
C6       -0.32933   0.20074    0.08364   1.00
C6       -0.32558   0.24401    0.11854   1.00
H2       -0.21604   0.11096    0.11053   1.00
C6       -0.31555   0.07110    0.12358   1.00
C6       -0.29102   0.08016    0.08676   1.00
C6       0.00309    0.36761    0.05865   1.00
C6       -0.03663   0.38960    0.02552   1.00
H2       0.00907    0.46042    0.04931   1.00
H2       -0.14555   0.41808    0.03228   1.00
C6       -0.19980   0.44208    0.05415   1.00
C6       -0.08303   0.52311    0.04068   1.00
H2       -0.10386   0.47325    0.08674   1.00
C6       -0.07977   0.40888    0.10392   1.00
C6       0.00416    0.51389    0.08538   1.00
H2       -0.08453   0.26338    0.12805   1.00
H2       -0.13331   0.18287    0.13976   1.00
H2       -0.10422   0.25882    0.15391   1.00
H2       -0.22114   0.24737    0.16480   1.00
H2       -0.29127   0.18890    0.15027   1.00
H2       -0.23421   0.16544    0.16037   1.00
H2       -0.34942   0.23253    0.07789   1.00
H2       -0.30337   0.19271    0.07097   1.00
H2       -0.37279   0.15173    0.08803   1.00
H2       -0.29463   0.27681    0.13093   1.00
H2       -0.35323   0.26797    0.11226   1.00
H2       -0.36331   0.19451    0.12469   1.00
H2       -0.35714   0.08235    0.12403   1.00
H2       -0.33764   0.01667    0.12034   1.00
H2       -0.29357   0.07815    0.13864   1.00
H2       -0.34460   0.06554    0.08513   1.00
H2       -0.26450   0.11090    0.07366   1.00
H2       -0.28822   0.03341    0.08568   1.00
H2       -0.02518   0.31338    0.05512   1.00
H2       0.05496    0.38728    0.05296   1.00
H2       0.00667    0.37327    0.07507   1.00
H2       0.01277    0.40120    0.01926   1.00
H2       -0.07188   0.33594    0.02251   1.00
H2       -0.05309   0.41976    0.01683   1.00
H2       -0.22243   0.45809    0.04223   1.00
H2       -0.23775   0.38976    0.05818   1.00
H2       -0.19133   0.47437    0.06736   1.00
H2       -0.03488   0.53095    0.03454   1.00
H2       -0.10612   0.53940    0.02897   1.00
H2       -0.07212   0.55668    0.05374   1.00
H2       -0.05058   0.38255    0.10321   1.00
H2       -0.06462   0.44034    0.11759   1.00
H2       -0.13314   0.37062    0.10572   1.00
H2       0.01207    0.54390    0.09915   1.00
H2       0.04168    0.49697    0.08539   1.00
H2       0.01516    0.54843    0.07261   1.00
C4       0.52771    1.02381    0.88319   1.00
C4       0.49819    0.96774    0.86933   1.00
C3       0.59847    1.06149    0.88768   1.00
C3       0.53540    0.93987    0.86002   1.00
C3       0.48440    1.04308    0.89345   1.00
C3       0.42761    0.93749    0.86433   1.00
C2       0.58298    1.13437    0.91215   1.00
C2       0.43444    0.85329    0.84182   1.00
C3       0.62533    1.11500    0.90185   1.00
C3       0.50459    0.88463    0.84650   1.00
C3       0.51267    1.09803    0.90740   1.00
C3       0.39690    0.88003    0.85135   1.00
H1       0.63260    1.05133    0.88075   1.00
H1       0.58588    0.95859    0.86288   1.00
C5       0.41318    1.00752    0.88964   1.00
C5       0.38786    0.96426    0.87244   1.00
H1       0.67685    1.14009    0.90459   1.00
H1       0.53415    0.86699    0.84008   1.00
H1       0.48125    1.11250    0.91422   1.00
H1       0.34544    0.85626    0.84895   1.00
O3       0.37037    1.01853    0.90191   1.00
O3       0.32386    0.94494    0.86481   1.00
Si1      0.33405    0.96905    0.92144   1.00
Si1      0.31767    0.98447    0.84494   1.00
C6       0.29894    1.01620    0.93211   1.00
C6       0.26976    0.88978    0.91209   1.00
C6       0.39269    0.96473    0.93816   1.00
C6       0.39365    1.04837    0.83357   1.00
C6       0.27283    0.91810    0.82752   1.00
C6       0.26509    1.01810    0.85171   1.00
C6       0.34847    1.09508    0.93386   1.00
H2       0.26115    1.01003    0.92076   1.00
C6       0.25940    0.99446    0.95281   1.00
H2       0.25787    0.90410    0.89750   1.00
C6       0.28875    0.83365    0.90727   1.00
C6       0.20038    0.85176    0.92377   1.00
H2       0.43120    1.01848    0.93998   1.00
C6       0.36687    0.93683    0.96005   1.00
C6       0.43176    0.92705    0.93129   1.00
C6       0.44472    1.10959    0.84705   1.00
C6       0.43792    1.02729    0.82049   1.00
H2       0.37446    1.07046    0.82248   1.00
H2       0.30938    0.90217    0.82333   1.00
C6       0.20938    0.85253    0.83606   1.00
C6       0.24948    0.93623    0.80728   1.00
H2       0.21342    0.97479    0.85030   1.00
C6       0.27051    1.04261    0.87408   1.00
C6       0.26736    1.07600    0.83815   1.00
H2       0.37092    1.11755    0.91920   1.00
H2       0.39001    1.10682    0.94447   1.00
H2       0.32153    1.12100    0.93914   1.00
H2       0.21851    1.00684    0.95280   1.00
H2       0.23631    0.94018    0.95583   1.00
H2       0.29220    1.02143    0.96570   1.00
H2       0.24973    0.79362    0.89774   1.00
H2       0.33648    0.85403    0.89895   1.00
H2       0.29275    0.80952    0.92113   1.00
H2       0.17724    0.88376    0.92537   1.00
H2       0.16325    0.80609    0.91560   1.00
H2       0.20712    0.83572    0.93881   1.00
H2       0.32048    0.88699    0.95955   1.00
H2       0.40497    0.93151    0.96884   1.00
H2       0.35695    0.97170    0.96875   1.00
H2       0.40301    0.87255    0.93462   1.00
H2       0.44352    0.93207    0.91524   1.00
H2       0.48035    0.94795    0.93936   1.00
H2       0.47788    1.09713    0.85578   1.00
H2       0.47773    1.15360    0.83759   1.00
H2       0.41872    1.12602    0.85756   1.00
H2       0.47738    1.07130    0.81224   1.00
H2       0.46390    1.00739    0.82970   1.00
H2       0.40773    0.98924    0.80906   1.00
H2       0.19217    0.81050    0.82523   1.00
H2       0.22169    0.83547    0.85013   1.00
H2       0.16664    0.86075    0.83905   1.00
H2       0.29131    0.98050    0.79988   1.00
H2       0.23131    0.89377    0.79656   1.00
H2       0.20779    0.94648    0.80984   1.00
H2       0.32125    1.08465    0.87767   1.00
H2       0.23352    1.05891    0.87734   1.00
H2       0.25961    1.00093    0.88436   1.00
H2       0.22554    1.08502    0.84199   1.00
H2       0.31508    1.12406    0.84019   1.00
H2       0.26196    1.06273    0.82210   1.00
C4       -0.01800   0.50294    0.88524   1.00
C4       0.03658    0.52803    0.87088   1.00
C3       -0.01864   0.46985    0.90360   1.00
C3       0.09290    0.51706    0.87254   1.00
C3       -0.07592   0.51013    0.88102   1.00
C3       0.03548    0.56645    0.85387   1.00
C2       -0.13183   0.45061    0.91302   1.00
C2       0.14417    0.57913    0.84095   1.00
C3       -0.07412   0.44405    0.91706   1.00
C3       0.14555    0.54244    0.85809   1.00
C3       -0.13082   0.48489    0.89498   1.00
C3       0.08754    0.58906    0.83903   1.00
H1       0.02128    0.46373    0.90777   1.00
H1       0.09713    0.48996    0.88421   1.00
C5       -0.07850   0.54274    0.86294   1.00
C5       -0.01777   0.58163    0.85163   1.00
H1       -0.07194   0.42015    0.93004   1.00
H1       0.18531    0.53344    0.86017   1.00
H1       -0.17117   0.49209    0.89202   1.00
H1       0.08376    0.61270    0.82629   1.00
O3       -0.13863   0.53953    0.85729   1.00
O3       -0.01299   0.62951    0.83771   1.00
Si1      -0.19092   0.47949    0.84193   1.00
Si1      0.02689    0.70981    0.84420   1.00
C6       -0.25910   0.49595    0.84396   1.00
C6       -0.15428   0.49964    0.81752   1.00
C6       -0.21490   0.39663    0.85052   1.00
C6       0.06474    0.73198    0.86851   1.00
C6       0.09040    0.74808    0.82556   1.00
C6       -0.03078   0.73990    0.84104   1.00
C6       -0.27880   0.50526    0.86605   1.00
H2       -0.23790   0.54608    0.83687   1.00
C6       -0.32870   0.44963    0.83287   1.00
H2       -0.12150   0.55487    0.81847   1.00
C6       -0.10660   0.47141    0.81103   1.00
C6       -0.20188   0.48683    0.79884   1.00
H2       -0.22823   0.39846    0.86635   1.00
C6       -0.27960   0.33566    0.84063   1.00
C6       -0.16081   0.37245    0.85070   1.00
C6       0.01811    0.69824    0.88741   1.00
C6       0.13242    0.73109    0.87266   1.00
H2       0.08036    0.78597    0.86949   1.00
H2       0.12560    0.72978    0.82904   1.00
C6       0.06712    0.72554    0.80315   1.00
C6       0.13373    0.82771    0.82543   1.00
H2       -0.02894   0.75025    0.82481   1.00
C6       -0.10719   0.68798    0.84557   1.00
C6       -0.01466   0.80775    0.85198   1.00
H2       -0.23500   0.54515    0.87420   1.00
H2       -0.29867   0.45805    0.87477   1.00
H2       -0.31771   0.52039    0.86590   1.00
H2       -0.35143   0.48018    0.82817   1.00
H2       -0.32331   0.42511    0.81939   1.00
H2       -0.36596   0.40947    0.84272   1.00
H2       -0.07628   0.49875    0.79774   1.00
H2       -0.07039   0.47788    0.82287   1.00
H2       -0.13609   0.41746    0.80705   1.00
H2       -0.23076   0.51329    0.80050   1.00
H2       -0.17237   0.50623    0.78484   1.00
H2       -0.23739   0.43243    0.79671   1.00
H2       -0.27534   0.33688    0.82412   1.00
H2       -0.28777   0.28622    0.84584   1.00
H2       -0.32569   0.33627    0.84481   1.00
H2       -0.15866   0.35023    0.83622   1.00
H2       -0.10952   0.41292    0.85404   1.00
H2       -0.17411   0.33319    0.86229   1.00
H2       0.01122    0.64794    0.89054   1.00
H2       0.04098    0.72928    0.90096   1.00
H2       -0.03203   0.69311    0.88560   1.00
H2       0.15435    0.75503    0.88725   1.00
H2       0.12437    0.67957    0.87326   1.00
H2       0.17133    0.75966    0.86127   1.00
H2       0.11145    0.74273    0.79322   1.00
H2       0.03735    0.67004    0.80180   1.00
H2       0.03638    0.74656    0.79731   1.00
H2       0.15396    0.84806    0.84044   1.00
H2       0.17751    0.84491    0.81526   1.00
H2       0.10383    0.85042    0.82014   1.00
H2       -0.11548   0.67141    0.86135   1.00
H2       -0.13993   0.70931    0.84210   1.00
H2       -0.12427   0.64307    0.83612   1.00
H2       -0.04795   0.82632    0.84641   1.00
H2       -0.02224   0.80051    0.86836   1.00
H2       0.03758    0.84822    0.84923   1.00
C4       0.49810    0.47989    0.88519   1.00
C4       0.47286    0.50914    0.87079   1.00
C3       0.54185    0.51691    0.90154   1.00
C3       0.49373    0.57961    0.87021   1.00
C3       0.47973    0.41002    0.88309   1.00
C3       0.42386    0.46606    0.85611   1.00
C2       0.54968    0.41795    0.91306   1.00
C2       0.42058    0.56463    0.84091   1.00
C3       0.56726    0.48695    0.91503   1.00
C3       0.46786    0.60652    0.85580   1.00
C3       0.50488    0.38039    0.89708   1.00
C3       0.40063    0.49466    0.84119   1.00
H1       0.55635    0.56667    0.90417   1.00
H1       0.52865    0.61353    0.88015   1.00
C5       0.43613    0.37012    0.86707   1.00
C5       0.39871    0.39481    0.85626   1.00
H1       0.59912    0.51638    0.92648   1.00
H1       0.48435    0.65778    0.85621   1.00
H1       0.48976    0.32973    0.89572   1.00
H1       0.36892    0.46386    0.83000   1.00
O3       0.42772    0.30664    0.86306   1.00
O3       0.34212    0.35080    0.84498   1.00
Si1      0.47581    0.29845    0.84614   1.00
Si1      0.26646    0.32373    0.85459   1.00
C6       0.44914    0.21202    0.85101   1.00
C6       0.44822    0.30874    0.82207   1.00
C6       0.56389    0.35123    0.85082   1.00
C6       0.26052    0.35451    0.87871   1.00
C6       0.22657    0.34877    0.83644   1.00
C6       0.22445    0.23397    0.85478   1.00
C6       0.44704    0.19223    0.87389   1.00
H2       0.39595    0.18639    0.84612   1.00
C6       0.48220    0.17493    0.83956   1.00
H2       0.39528    0.29429    0.82506   1.00
C6       0.48208    0.38204    0.81275   1.00
C6       0.44553    0.26160    0.80431   1.00
H2       0.56762    0.34226    0.86694   1.00
C6       0.61375    0.33305    0.83961   1.00
C6       0.59766    0.43058    0.84812   1.00
C6       0.29830    0.34345    0.89689   1.00
C6       0.27367    0.42906    0.88080   1.00
H2       0.20633    0.32295    0.88216   1.00
H2       0.25289    0.40417    0.83786   1.00
C6       0.23601    0.33463    0.81375   1.00
C6       0.14893    0.32311    0.83937   1.00
H2       0.20594    0.21961    0.83926   1.00
C6       0.26997    0.20141    0.85863   1.00
C6       0.16051    0.19476    0.86879   1.00
H2       0.41546    0.20642    0.88285   1.00
H2       0.49814    0.21736    0.88051   1.00
H2       0.42513    0.13719    0.87569   1.00
H2       0.44423    0.12123    0.83723   1.00
H2       0.50238    0.19691    0.82476   1.00
H2       0.52378    0.17570    0.84818   1.00
H2       0.45133    0.38394    0.80025   1.00
H2       0.48644    0.41983    0.82376   1.00
H2       0.53269    0.39753    0.80675   1.00
H2       0.41404    0.20780    0.80822   1.00
H2       0.42270    0.26948    0.79069   1.00
H2       0.49660    0.27188    0.80027   1.00
H2       0.60510    0.32936    0.82325   1.00
H2       0.66725    0.37110    0.84231   1.00
H2       0.60817    0.28530    0.84510   1.00
H2       0.61444    0.44662    0.83256   1.00
H2       0.56427    0.45015    0.85214   1.00
H2       0.64274    0.45678    0.85782   1.00
H2       0.35190    0.38274    0.89745   1.00
H2       0.27552    0.34567    0.91129   1.00
H2       0.29528    0.29398    0.89627   1.00
H2       0.25877    0.43713    0.89588   1.00
H2       0.32717    0.46713    0.87884   1.00
H2       0.24383    0.43980    0.86998   1.00
H2       0.21973    0.36201    0.80361   1.00
H2       0.28950    0.35235    0.81027   1.00
H2       0.20635    0.28051    0.81002   1.00
H2       0.13776    0.33279    0.85472   1.00
H2       0.13242    0.34979    0.82900   1.00
H2       0.11787    0.26860    0.83624   1.00
H2       0.29387    0.21432    0.87356   1.00
H2       0.24083    0.14591    0.85732   1.00
H2       0.31025    0.21958    0.84736   1.00
H2       0.13319    0.14026    0.86526   1.00
H2       0.17496    0.20029    0.88479   1.00
H2       0.12431    0.21271    0.86677   1.00
C4       0.35623    0.19477    0.28317   1.00
C4       0.30020    0.16493    0.29703   1.00
C3       0.38128    0.26019    0.27432   1.00
C3       0.25979    0.19471    0.30199   1.00
C3       0.38876    0.15713    0.27748   1.00
C3       0.28321    0.10186    0.30662   1.00
C2       0.46758    0.25013    0.25447   1.00
C2       0.18676    0.10061    0.32488   1.00
C3       0.43516    0.28698    0.26028   1.00
C3       0.20502    0.16379    0.31568   1.00
C3       0.44387    0.18560    0.26358   1.00
C3       0.22604    0.07011    0.31969   1.00
H1       0.36128    0.29038    0.27787   1.00
H1       0.26867    0.23953    0.29572   1.00
C5       0.36623    0.09143    0.28578   1.00
C5       0.32288    0.07046    0.30300   1.00
H1       0.45077    0.33436    0.25427   1.00
H1       0.17796    0.18797    0.31882   1.00
H1       0.46793    0.15881    0.26008   1.00
H1       0.21190    0.02291    0.32541   1.00
O3       0.38981    0.05082    0.27779   1.00
O3       0.31602    0.01731    0.31499   1.00
Si1      0.34631    -0.00435   0.26006   1.00
Si1      0.35865    0.03490    0.33621   1.00
C6       0.40752    -0.02839   0.25430   1.00
C6       0.27359    -0.07183   0.27159   1.00
C6       0.32953    0.03254    0.23884   1.00
C6       0.40945    0.12144    0.34327   1.00
C6       0.29456    -0.00800   0.35443   1.00
C6       0.40873    -0.00457   0.33519   1.00
C6       0.48248    0.03159    0.25135   1.00
H2       0.40846    -0.05406   0.26821   1.00
C6       0.39533    -0.07997   0.23669   1.00
H2       0.29049    -0.06874   0.28725   1.00
C6       0.20700    -0.06721   0.27268   1.00
C6       0.24962    -0.14653   0.26461   1.00
H2       0.37954    0.07695    0.23582   1.00
C6       0.30746    -0.00998   0.21872   1.00
C6       0.27817    0.05982    0.24092   1.00
C6       0.46597    0.17073    0.32818   1.00
C6       0.37440    0.16122    0.35155   1.00
H2       0.43700    0.11819    0.35641   1.00
H2       0.26796    0.02099    0.35490   1.00
C6       0.23864    -0.08275   0.34902   1.00
C6       0.31774    -0.00984   0.37665   1.00
H2       0.37333    -0.05754   0.33927   1.00
C6       0.43680    -0.00817   0.31392   1.00
C6       0.47019    0.02066    0.35025   1.00
H2       0.50018    0.06530    0.26453   1.00
H2       0.48668    0.06227    0.23804   1.00
H2       0.51787    0.01242    0.24938   1.00
H2       0.41861    -0.11077   0.24052   1.00
H2       0.34162    -0.11482   0.23372   1.00
H2       0.41856    -0.05415   0.22245   1.00
H2       0.17128    -0.10364   0.28371   1.00
H2       0.21711    -0.01709   0.27755   1.00
H2       0.18111    -0.07887   0.25803   1.00
H2       0.29038    -0.15867   0.26612   1.00
H2       0.20743    -0.18371   0.27396   1.00
H2       0.23210    -0.15463   0.24888   1.00
H2       0.26375    -0.06080   0.22124   1.00
H2       0.29358    0.01468    0.20685   1.00
H2       0.34902    -0.01494   0.21235   1.00
H2       0.22560    0.02001    0.23810   1.00
H2       0.27913    0.08112    0.25571   1.00
H2       0.29047    0.10030    0.22983   1.00
H2       0.44542    0.18951    0.31652   1.00
H2       0.50537    0.21533    0.33622   1.00
H2       0.49132    0.14657    0.32071   1.00
H2       0.41240    0.21041    0.35788   1.00
H2       0.34744    0.17185    0.33975   1.00
H2       0.33856    0.13384    0.36377   1.00
H2       0.19542    -0.10076   0.35944   1.00
H2       0.21856    -0.08586   0.33374   1.00
H2       0.25811    -0.11807   0.34994   1.00
H2       0.35556    0.04083    0.38197   1.00
H2       0.27429    -0.02883   0.38703   1.00
H2       0.33914    -0.04349   0.37798   1.00
H2       0.47128    0.04231    0.30775   1.00
H2       0.46381    -0.03683   0.31439   1.00
H2       0.39481    -0.03436   0.30334   1.00
H2       0.49043    -0.01423   0.35030   1.00
H2       0.51182    0.07114    0.34605   1.00
H2       0.45514    0.02309    0.36579   1.00
C4       0.83433    0.64184    0.28379   1.00
C4       0.86143    0.69777    0.29770   1.00
C3       0.84192    0.58367    0.28619   1.00
C3       0.90399    0.70400    0.31435   1.00
C3       0.79844    0.64413    0.26628   1.00
C3       0.84532    0.75069    0.29503   1.00
C2       0.78096    0.53242    0.25445   1.00
C2       0.91546    0.81324    0.32490   1.00
C3       0.81633    0.53063    0.27187   1.00
C3       0.92976    0.75980    0.32769   1.00
C3       0.77190    0.58950    0.25222   1.00
C3       0.87418    0.80791    0.30812   1.00
H1       0.86606    0.57802    0.29843   1.00
H1       0.91787    0.66840    0.31720   1.00
C5       0.78903    0.70082    0.26299   1.00
C5       0.80105    0.74663    0.27921   1.00
H1       0.82379    0.49007    0.27433   1.00
H1       0.95980    0.76130    0.33957   1.00
H1       0.74463    0.59097    0.24003   1.00
H1       0.86570    0.84742    0.30523   1.00
O3       0.76468    0.70829    0.24458   1.00
O3       0.77415    0.78959    0.27875   1.00
Si1      0.81809    0.75432    0.22677   1.00
Si1      0.70507    0.76889    0.29170   1.00
C6       0.75745    0.73314    0.20724   1.00
C6       0.85411    0.84055    0.23394   1.00
C6       0.87759    0.72829    0.22069   1.00
C6       0.66955    0.69365    0.30645   1.00
C6       0.72993    0.83957    0.30764   1.00
C6       0.64397    0.76575    0.27452   1.00
C6       0.70423    0.65534    0.20480   1.00
H2       0.72816    0.75643    0.21259   1.00
C6       0.78012    0.76050    0.18507   1.00
H2       0.81483    0.83896    0.24389   1.00
C6       0.92121    0.87360    0.24677   1.00
C6       0.86598    0.89445    0.21721   1.00
H2       0.84496    0.67310    0.21916   1.00
C6       0.91671    0.75390    0.20007   1.00
C6       0.93469    0.74012    0.23641   1.00
C6       0.64964    0.62494    0.29550   1.00
C6       0.70481    0.69293    0.32683   1.00
H2       0.62130    0.68880    0.31139   1.00
H2       0.76491    0.83633    0.31836   1.00
C6       0.77177    0.91133    0.29742   1.00
C6       0.67313    0.84153    0.32062   1.00
H2       0.65768    0.81903    0.27269   1.00
C6       0.64594    0.74054    0.25266   1.00
C6       0.56728    0.72680    0.28114   1.00
H2       0.67710    0.63329    0.21897   1.00
H2       0.72894    0.62665    0.20009   1.00
H2       0.66555    0.64710    0.19349   1.00
H2       0.74160    0.76915    0.17787   1.00
H2       0.82824    0.80831    0.18454   1.00
H2       0.78551    0.72415    0.17548   1.00
H2       0.92996    0.92111    0.25377   1.00
H2       0.91899    0.84071    0.25913   1.00
H2       0.96547    0.88573    0.23734   1.00
H2       0.81887    0.88115    0.20914   1.00
H2       0.88354    0.94484    0.22384   1.00
H2       0.90446    0.89935    0.20629   1.00
H2       0.94175    0.80935    0.19887   1.00
H2       0.95574    0.73928    0.19824   1.00
H2       0.88260    0.73118    0.18723   1.00
H2       0.97993    0.79043    0.23479   1.00
H2       0.91835    0.73541    0.25205   1.00
H2       0.95091    0.70251    0.23407   1.00
H2       0.69333    0.61753    0.29373   1.00
H2       0.61148    0.58177    0.30432   1.00
H2       0.62773    0.62179    0.28057   1.00
H2       0.67197    0.64671    0.33550   1.00
H2       0.75271    0.69378    0.32434   1.00
H2       0.71467    0.73572    0.33662   1.00
H2       0.79459    0.95126    0.30897   1.00
H2       0.81369    0.91482    0.28829   1.00
H2       0.74001    0.92301    0.28767   1.00
H2       0.64241    0.79391    0.32884   1.00
H2       0.69595    0.88216    0.33197   1.00
H2       0.63933    0.85142    0.31120   1.00
H2       0.63550    0.68803    0.25251   1.00
H2       0.60924    0.74393    0.24268   1.00
H2       0.69606    0.77241    0.24608   1.00
H2       0.53617    0.73731    0.27068   1.00
H2       0.54671    0.67167    0.28133   1.00
H2       0.56027    0.74247    0.29616   1.00
C4       0.80730    0.16541    0.28378   1.00
C4       0.83620    0.13835    0.29768   1.00
C3       0.74033    0.15510    0.28568   1.00
C3       0.79900    0.09325    0.31377   1.00
C3       0.84675    0.20416    0.26680   1.00
C3       0.90619    0.15716    0.29558   1.00
C2       0.75137    0.21897    0.25446   1.00
C2       0.89789    0.08461    0.32489   1.00
C3       0.71296    0.18079    0.27137   1.00
C3       0.82913    0.06760    0.32712   1.00
C3       0.81866    0.23072    0.25274   1.00
C3       0.93477    0.12845    0.30866   1.00
H1       0.70956    0.12883    0.29755   1.00
H1       0.74882    0.07737    0.31619   1.00
C5       0.91409    0.21636    0.26401   1.00
C5       0.94717    0.20399    0.28036   1.00
H1       0.66404    0.17129    0.27345   1.00
H1       0.79991    0.03565    0.33858   1.00
H1       0.84822    0.26001    0.24094   1.00
H1       0.98365    0.13900    0.30615   1.00
O3       0.94762    0.24367    0.24600   1.00
O3       1.01733    0.23313    0.28056   1.00
Si1      0.94427    0.19321    0.22779   1.00
Si1      1.06238    0.30112    0.29431   1.00
C6       0.98424    0.25648    0.20896   1.00
C6       0.99606    0.15907    0.23503   1.00
C6       0.86020    0.13232    0.22071   1.00
C6       1.01880    0.33257    0.30904   1.00
C6       1.10826    0.27668    0.31037   1.00
C6       1.12091    0.36528    0.27797   1.00
C6       0.95734    0.30791    0.20674   1.00
H2       1.03604    0.28659    0.21487   1.00
C6       0.99245    0.23713    0.18668   1.00
H2       1.03177    0.19782    0.24550   1.00
C6       0.96262    0.09050    0.24715   1.00
C6       1.04126    0.15111    0.21851   1.00
H2       0.83607    0.16356    0.21926   1.00
C6       0.85035    0.09596    0.19974   1.00
C6       0.81459    0.07274    0.23571   1.00
C6       0.96951    0.35144    0.29790   1.00
C6       0.98126    0.29419    0.32891   1.00
H2       1.06052    0.38092    0.31460   1.00
H2       1.06950    0.23964    0.32058   1.00
C6       1.14158    0.23812    0.30007   1.00
C6       1.16438    0.33305    0.32413   1.00
H2       1.16199    0.35364    0.27631   1.00
C6       1.09578    0.36490    0.25593   1.00
C6       1.15555    0.44107    0.28538   1.00
H2       0.95982    0.33298    0.22112   1.00
H2       0.90446    0.28218    0.20150   1.00
H2       0.98808    0.34834    0.19590   1.00
H2       1.03978    0.27757    0.18007   1.00
H2       0.99413    0.19007    0.18581   1.00
H2       0.95122    0.23135    0.17678   1.00
H2       1.00167    0.08261    0.25434   1.00
H2       0.92987    0.08998    0.25931   1.00
H2       0.93273    0.04702    0.23720   1.00
H2       1.07473    0.19953    0.21101   1.00
H2       1.07468    0.13442    0.22523   1.00
H2       1.00983    0.11342    0.20711   1.00
H2       0.88247    0.07278    0.19857   1.00
H2       0.79745    0.05585    0.19728   1.00
H2       0.86202    0.13134    0.18723   1.00
H2       0.82176    0.02885    0.23381   1.00
H2       0.82401    0.08733    0.25154   1.00
H2       0.76065    0.05502    0.23290   1.00
H2       0.91940    0.30687    0.29549   1.00
H2       0.96187    0.38755    0.30695   1.00
H2       0.98944    0.37542    0.28327   1.00
H2       0.96532    0.32477    0.33771   1.00
H2       0.93551    0.24573    0.32577   1.00
H2       1.01408    0.28465    0.33884   1.00
H2       1.15863    0.21506    0.31156   1.00
H2       1.10515    0.19665    0.29039   1.00
H2       1.18567    0.27209    0.29084   1.00
H2       1.14499    0.36147    0.33245   1.00
H2       1.18214    0.31005    0.33543   1.00
H2       1.20860    0.36900    0.31526   1.00
H2       1.05251    0.37349    0.25557   1.00
H2       1.13628    0.40361    0.24648   1.00
H2       1.07995    0.31590    0.24887   1.00
H2       1.19789    0.47442    0.27542   1.00
H2       1.11948    0.45982    0.28548   1.00
H2       1.17666    0.44702    0.30059   1.00
C4       0.80904    0.64819    0.78162   1.00
C4       0.83752    0.70263    0.79604   1.00
C3       0.75415    0.63534    0.76850   1.00
C3       0.81002    0.74570    0.80007   1.00
C3       0.83587    0.60312    0.78032   1.00
C3       0.89691    0.71536    0.80712   1.00
C2       0.75209    0.53500    0.75357   1.00
C2       0.89717    0.81066    0.82578   1.00
C3       0.72618    0.58010    0.75494   1.00
C3       0.83937    0.79864    0.81439   1.00
C3       0.80777    0.54844    0.76627   1.00
C3       0.92395    0.76708    0.82210   1.00
H1       0.73304    0.66588    0.76836   1.00
H1       0.76762    0.73962    0.79282   1.00
C5       0.89076    0.61313    0.79300   1.00
C5       0.92868    0.67612    0.80335   1.00
H1       0.68619    0.57304    0.74593   1.00
H1       0.81764    0.82854    0.81655   1.00
H1       0.82877    0.51767    0.76511   1.00
H1       0.96381    0.77271    0.83080   1.00
O3       0.90889    0.56350    0.79414   1.00
O3       0.99298    0.69591    0.81082   1.00
Si1      0.87658    0.50561    0.81191   1.00
Si1      1.05948    0.75073    0.79791   1.00
C6       0.90868    0.45375    0.80287   1.00
C6       0.91565    0.54541    0.83497   1.00
C6       0.78655    0.46081    0.81225   1.00
C6       1.04590    0.78450    0.77536   1.00
C6       1.10423    0.81697    0.81538   1.00
C6       1.10895    0.71224    0.79284   1.00
C6       0.89868    0.43670    0.77964   1.00
H2       0.96357    0.48666    0.80493   1.00
C6       0.89028    0.38483    0.81367   1.00
H2       0.96397    0.58807    0.82977   1.00
C6       0.88142    0.57769    0.84807   1.00
C6       0.93516    0.50540    0.85039   1.00
H2       0.77412    0.44787    0.79626   1.00
C6       0.75029    0.39156    0.82410   1.00
C6       0.74748    0.49850    0.81911   1.00
C6       1.00133    0.73343    0.75836   1.00
C6       1.02327    0.83943    0.77668   1.00
H2       1.09721    0.81265    0.76900   1.00
H2       1.07237    0.84024    0.81702   1.00
C6       1.11163    0.79483    0.83730   1.00
C6       1.17656    0.87549    0.80900   1.00
H2       1.13742    0.71926    0.80685   1.00
C6       1.06898    0.63368    0.78924   1.00
C6       1.16347    0.74322    0.77552   1.00
H2       0.92015    0.48296    0.77043   1.00
H2       0.84467    0.40547    0.77581   1.00
H2       0.92444    0.40895    0.77501   1.00
H2       0.93315    0.37554    0.81260   1.00
H2       0.87840    0.38438    0.82966   1.00
H2       0.84676    0.34108    0.80661   1.00
H2       0.91715    0.61258    0.85938   1.00
H2       0.86580    0.60756    0.83894   1.00
H2       0.83700    0.53857    0.85618   1.00
H2       0.96819    0.48887    0.84342   1.00
H2       0.96360    0.53747    0.86328   1.00
H2       0.88973    0.46090    0.85638   1.00
H2       0.76895    0.39801    0.83967   1.00
H2       0.69495    0.36989    0.82469   1.00
H2       0.75789    0.35307    0.81666   1.00
H2       0.73993    0.49619    0.83551   1.00
H2       0.77304    0.55185    0.81489   1.00
H2       0.69692    0.47450    0.81212   1.00
H2       0.94708    0.71289    0.76109   1.00
H2       1.01282    0.75905    0.74363   1.00
H2       1.01064    0.69089    0.75691   1.00
H2       1.02642    0.86208    0.76178   1.00
H2       0.97087    0.81797    0.78183   1.00
H2       1.05601    0.88147    0.78673   1.00
H2       1.12948    0.83786    0.84779   1.00
H2       1.06272    0.75463    0.84313   1.00
H2       1.14784    0.77639    0.83786   1.00
H2       1.17591    0.89564    0.79402   1.00
H2       1.19483    0.91811    0.81966   1.00
H2       1.21371    0.85813    0.80890   1.00
H2       1.03614    0.61964    0.77592   1.00
H2       1.10336    0.61330    0.78739   1.00
H2       1.03698    0.60823    0.80228   1.00
H2       1.19747    0.72194    0.77594   1.00
H2       1.13952    0.73234    0.76056   1.00
H2       1.19560    0.79831    0.77705   1.00
C4       0.35428    0.16913    0.78238   1.00
C4       0.29852    0.14188    0.79636   1.00
C3       0.35883    0.20941    0.76531   1.00
C3       0.23898    0.14691    0.79364   1.00
C3       0.40830    0.15476    0.78532   1.00
C3       0.30193    0.10771    0.81413   1.00
C2       0.46705    0.21952    0.75426   1.00
C2       0.18729    0.08406    0.82509   1.00
C3       0.41344    0.23360    0.75156   1.00
C3       0.18515    0.11938    0.80770   1.00
C3       0.46358    0.18072    0.77149   1.00
C3       0.24590    0.07779    0.82766   1.00
H1       0.32272    0.22255    0.76239   1.00
H1       0.23277    0.17035    0.78131   1.00
C5       0.40690    0.11482    0.80210   1.00
C5       0.36087    0.10299    0.81824   1.00
H1       0.41374    0.26207    0.73940   1.00
H1       0.14361    0.12508    0.80504   1.00
H1       0.50289    0.17159    0.77411   1.00
H1       0.24730    0.04976    0.83962   1.00
O3       0.45268    0.09163    0.80303   1.00
O3       0.37098    0.08252    0.83705   1.00
Si1      0.43134    0.01618    0.79419   1.00
Si1      0.40555    0.13922    0.85504   1.00
C6       0.51238    0.02339    0.79639   1.00
C6       0.37270    -0.04446   0.81136   1.00
C6       0.40390    0.00441    0.76869   1.00
C6       0.42575    0.22387    0.84981   1.00
C6       0.34461    0.10567    0.87452   1.00
C6       0.47878    0.13775    0.86331   1.00
C6       0.57394    0.09110    0.78805   1.00
H2       0.51956    0.02548    0.81280   1.00
C6       0.52507    -0.03503   0.78876   1.00
H2       0.38573    -0.01540   0.82547   1.00
C6       0.29491    -0.07163   0.80796   1.00
C6       0.37811    -0.10927   0.81618   1.00
H2       0.44350    0.05095    0.76150   1.00
C6       0.40247    -0.05629   0.75685   1.00
C6       0.33387    -0.00074   0.76327   1.00
C6       0.47454    0.26156    0.83162   1.00
C6       0.36719    0.24153    0.84866   1.00
H2       0.45423    0.25102    0.86333   1.00
H2       0.30247    0.11120    0.86875   1.00
C6       0.31329    0.02773    0.87898   1.00
C6       0.36471    0.14277    0.89550   1.00
H2       0.45891    0.09423    0.87361   1.00
C6       0.51874    0.12261    0.84681   1.00
C6       0.53354    0.20033    0.87567   1.00
H2       0.57618    0.13593    0.79503   1.00
H2       0.57037    0.09519    0.77163   1.00
H2       0.62252    0.09378    0.79138   1.00
H2       0.56282    -0.03793   0.79840   1.00
H2       0.47923    -0.08492   0.78895   1.00
H2       0.54536    -0.02608   0.77334   1.00
H2       0.26578    -0.09679   0.82163   1.00
H2       0.28445    -0.03071   0.80458   1.00
H2       0.27486    -0.10883   0.79565   1.00
H2       0.42882    -0.09556   0.82169   1.00
H2       0.34245    -0.13999   0.82815   1.00
H2       0.36643    -0.14171   0.80280   1.00
H2       0.37277    -0.10433   0.76500   1.00
H2       0.38038    -0.06255   0.74169   1.00
H2       0.45364    -0.04757   0.75434   1.00
H2       0.29130    -0.05288   0.76447   1.00
H2       0.32166    0.03071    0.77277   1.00
H2       0.33480    0.01578    0.74762   1.00
H2       0.44720    0.24888    0.81724   1.00
H2       0.49856    0.31681    0.83348   1.00
H2       0.51546    0.24975    0.83040   1.00
H2       0.38829    0.29679    0.84821   1.00
H2       0.33595    0.22075    0.83514   1.00
H2       0.33386    0.22322    0.86188   1.00
H2       0.26833    0.00939    0.88870   1.00
H2       0.29654    -0.00236   0.86504   1.00
H2       0.34948    0.01676    0.88661   1.00
H2       0.38533    0.19759    0.89392   1.00
H2       0.31991    0.12368    0.90533   1.00
H2       0.40230    0.13420    0.90332   1.00
H2       0.53924    0.16163    0.83503   1.00
H2       0.56092    0.11864    0.85337   1.00
H2       0.48507    0.07411    0.83956   1.00
H2       0.57070    0.18889    0.88252   1.00
H2       0.56153    0.24513    0.86600   1.00
H2       0.51062    0.21382    0.88806   1.00
C4       0.83054    0.18534    0.78257   1.00
C4       0.85773    0.15668    0.79651   1.00
C3       0.78290    0.14714    0.76712   1.00
C3       0.84483    0.08863    0.79524   1.00
C3       0.85265    0.25635    0.78380   1.00
C3       0.90012    0.19777    0.81273   1.00
C2       0.78055    0.24777    0.75432   1.00
C2       0.91587    0.10297    0.82503   1.00
C3       0.75886    0.17752    0.75331   1.00
C3       0.87256    0.06228    0.80921   1.00
C3       0.82682    0.28577    0.76996   1.00
C3       0.92990    0.17115    0.82613   1.00
H1       0.76409    0.09608    0.76549   1.00
H1       0.81527    0.05633    0.78405   1.00
C5       0.90019    0.29744    0.79890   1.00
C5       0.91310    0.26533    0.81541   1.00
H1       0.72483    0.14743    0.74236   1.00
H1       0.86101    0.01252    0.80765   1.00
H1       0.84169    0.33636    0.77138   1.00
H1       0.96359    0.20254    0.83686   1.00
O3       0.92989    0.36737    0.79795   1.00
O3       0.94228    0.30104    0.83307   1.00
Si1      1.00328    0.41236    0.78660   1.00
Si1      0.89321    0.29033    0.85248   1.00
C6       1.00559    0.49141    0.78740   1.00
C6       1.06619    0.41276    0.80245   1.00
C6       1.00351    0.38632    0.76137   1.00
C6       0.80510    0.23106    0.85025   1.00
C6       0.92835    0.26385    0.87174   1.00
C6       0.90587    0.37120    0.85913   1.00
C6       0.93874    0.49031    0.78056   1.00
H2       1.01001    0.50227    0.80365   1.00
C6       1.06542    0.55664    0.77724   1.00
H2       1.04224    0.40393    0.81735   1.00
C6       1.08469    0.35533    0.79959   1.00
C6       1.13627    0.48032    0.80453   1.00
H2       0.95674    0.38227    0.75527   1.00
C6       1.06265    0.43752    0.74722   1.00
C6       0.99914    0.31588    0.75723   1.00
C6       0.76473    0.24133    0.83268   1.00
C6       0.77967    0.15279    0.85101   1.00
H2       0.78467    0.24001    0.86417   1.00
H2       0.91581    0.21262    0.86711   1.00
C6       1.00791    0.30495    0.87371   1.00
C6       0.89921    0.25716    0.89366   1.00
H2       0.95279    0.39416    0.86803   1.00
C6       0.92035    0.42193    0.84131   1.00
C6       0.85092    0.37439    0.87278   1.00
H2       0.89458    0.45318    0.78924   1.00
H2       0.92826    0.47749    0.76449   1.00
H2       0.94255    0.53987    0.78298   1.00
H2       1.07608    0.60206    0.78592   1.00
H2       1.11252    0.55503    0.77638   1.00
H2       1.05289    0.56466    0.76186   1.00
H2       1.11256    0.35256    0.81276   1.00
H2       1.03953    0.30518    0.79808   1.00
H2       1.11700    0.36496    0.78629   1.00
H2       1.12956    0.52255    0.80951   1.00
H2       1.16862    0.47533    0.81594   1.00
H2       1.16416    0.49396    0.79019   1.00
H2       1.11243    0.45368    0.75401   1.00
H2       1.06137    0.41529    0.73237   1.00
H2       1.05838    0.48229    0.74402   1.00
H2       1.04933    0.32013    0.75721   1.00
H2       0.96824    0.27684    0.76817   1.00
H2       0.97645    0.29647    0.74232   1.00
H2       0.76985    0.21983    0.81845   1.00
H2       0.71030    0.21572    0.83624   1.00
H2       0.78123    0.29488    0.83016   1.00
H2       0.72409    0.12337    0.85234   1.00
H2       0.79313    0.13500    0.83740   1.00
H2       0.79975    0.13909    0.86411   1.00
H2       1.02549    0.27795    0.88356   1.00
H2       1.03258    0.31090    0.85901   1.00
H2       1.02614    0.35560    0.88011   1.00
H2       0.84363    0.22726    0.89385   1.00
H2       0.91762    0.23106    0.90358   1.00
H2       0.91514    0.30709    0.90030   1.00
H2       0.87768    0.40333    0.83075   1.00
H2       0.93155    0.47200    0.84680   1.00
H2       0.96474    0.42940    0.83288   1.00
H2       0.86946    0.42623    0.87835   1.00
H2       0.80380    0.35897    0.86438   1.00
H2       0.83862    0.34176    0.88609   1.00
C4       -0.02073   0.47255    0.38423   1.00
C4       0.03380    0.50194    0.36986   1.00
C3       -0.06496   0.40123    0.38650   1.00
C3       0.04566    0.46336    0.35509   1.00
C3       -0.03286   0.51647    0.39692   1.00
C3       0.07951    0.57384    0.37012   1.00
C2       -0.13196   0.41723    0.41297   1.00
C2       0.14430    0.56535    0.34100   1.00
C3       -0.11928   0.37430    0.40039   1.00
C3       0.09976    0.49407    0.34118   1.00
C3       -0.08715   0.48826    0.41110   1.00
C3       0.13192    0.60412    0.35542   1.00
H1       -0.05885   0.36676    0.37818   1.00
H1       0.01511    0.41187    0.35393   1.00
C5       0.00950    0.58828    0.39543   1.00
C5       0.07240    0.61527    0.38492   1.00
H1       -0.14989   0.32231    0.40126   1.00
H1       0.10622    0.46356    0.33097   1.00
H1       -0.09406   0.52033    0.42049   1.00
H1       0.16147    0.65608    0.35498   1.00
O3       -0.00901   0.63045    0.40515   1.00
O3       0.12329    0.68197    0.38803   1.00
Si1      -0.05265   0.65880    0.39298   1.00
Si1      0.18644    0.69695    0.40311   1.00
C6       -0.06944   0.69651    0.41399   1.00
C6       0.00323    0.72109    0.37568   1.00
C6       -0.12888   0.59327    0.38229   1.00
C6       0.18815    0.62657    0.41408   1.00
C6       0.25838    0.74226    0.38759   1.00
C6       0.18901    0.75262    0.42220   1.00
C6       -0.09588   0.65147    0.43359   1.00
H2       -0.01861   0.73812    0.41784   1.00
C6       -0.11508   0.73028    0.41175   1.00
H2       0.05273    0.73844    0.38280   1.00
C6       0.00925    0.69782    0.35380   1.00
C6       -0.00218   0.78675    0.37258   1.00
H2       -0.15087   0.55748    0.39492   1.00
C6       -0.18415   0.61199    0.37587   1.00
C6       -0.12530   0.55128    0.36381   1.00
C6       0.12542    0.57538    0.42704   1.00
C6       0.20841    0.58223    0.40072   1.00
H2       0.23025    0.65126    0.42483   1.00
H2       0.25507    0.70406    0.37685   1.00
C6       0.25975    0.80022    0.37428   1.00
C6       0.32998    0.77328    0.39789   1.00
H2       0.21552    0.80285    0.41508   1.00
C6       0.11898    0.74331    0.42907   1.00
C6       0.22943    0.75875    0.44211   1.00
H2       -0.06109   0.63391    0.43842   1.00
H2       -0.14605   0.60664    0.43112   1.00
H2       -0.09999   0.68026    0.44629   1.00
H2       -0.09717   0.77377    0.42205   1.00
H2       -0.11448   0.74878    0.39650   1.00
H2       -0.16827   0.69525    0.41571   1.00
H2       0.05491    0.73732    0.34618   1.00
H2       0.01382    0.65222    0.35397   1.00
H2       -0.03463   0.68801    0.34451   1.00
H2       0.00325    0.81310    0.38691   1.00
H2       0.03850    0.82346    0.36270   1.00
H2       -0.05077   0.77449    0.36561   1.00
H2       -0.16271   0.65595    0.36570   1.00
H2       -0.22740   0.56973    0.36813   1.00
H2       -0.20599   0.62301    0.38900   1.00
H2       -0.12319   0.57556    0.34932   1.00
H2       -0.08174   0.54369    0.36430   1.00
H2       -0.17079   0.50059    0.36351   1.00
H2       0.08446    0.53765    0.41758   1.00
H2       0.13997    0.54737    0.43751   1.00
H2       0.10497    0.60103    0.43618   1.00
H2       0.21648    0.54723    0.41019   1.00
H2       0.16906    0.55119    0.38976   1.00
H2       0.25600    0.61324    0.39253   1.00
H2       0.29984    0.81727    0.36279   1.00
H2       0.21167    0.78234    0.36617   1.00
H2       0.26935    0.84449    0.38333   1.00
H2       0.33445    0.73562    0.40708   1.00
H2       0.37015    0.79126    0.38639   1.00
H2       0.34043    0.81674    0.40750   1.00
H2       0.08623    0.69336    0.43583   1.00
H2       0.12529    0.78223    0.44004   1.00
H2       0.09233    0.74837    0.41610   1.00
H2       0.23606    0.80192    0.45127   1.00
H2       0.20272    0.71287    0.45142   1.00
H2       0.28035    0.76737    0.43887   1.00
C4       0.49340    1.02107    0.38412   1.00
C4       0.46832    0.96648    0.36976   1.00
C3       0.47024    1.06881    0.38520   1.00
C3       0.42225    0.95791    0.35389   1.00
C3       0.54531    1.02950    0.39805   1.00
C3       0.48997    0.91727    0.37120   1.00
C2       0.54912    1.13205    0.41294   1.00
C2       0.42114    0.85561    0.34103   1.00
C3       0.49757    1.12301    0.39913   1.00
C3       0.39880    0.90365    0.34004   1.00
C3       0.57131    1.08376    0.41224   1.00
C3       0.46801    0.86467    0.35656   1.00
H1       0.43267    1.06547    0.37594   1.00
H1       0.40472    0.99106    0.35186   1.00
C5       0.57070    0.98352    0.39779   1.00
C5       0.53385    0.92107    0.38710   1.00
H1       0.47917    1.15625    0.39911   1.00
H1       0.36506    0.89968    0.32899   1.00
H1       0.60717    1.08806    0.42252   1.00
H1       0.48737    0.83245    0.35703   1.00
O3       0.62816    0.99822    0.40881   1.00
O3       0.54454    0.86725    0.39118   1.00
Si1      0.70303    1.03809    0.39800   1.00
Si1      0.49042    0.80546    0.40571   1.00
C6       0.75202    1.05147    0.42014   1.00
C6       0.70873    0.97980    0.38153   1.00
C6       0.72128    1.11618    0.38675   1.00
C6       0.41883    0.80897    0.41484   1.00
C6       0.46287    0.73298    0.39037   1.00
C6       0.53703    0.79890    0.42612   1.00
C6       0.73194    1.08018    0.43892   1.00
H2       0.73857    0.99955    0.42432   1.00
C6       0.83203    1.09286    0.41940   1.00
H2       0.67270    0.93095    0.38838   1.00
C6       0.68490    0.97572    0.35905   1.00
C6       0.77793    0.98018    0.38018   1.00
H2       0.70698    1.13994    0.39875   1.00
C6       0.79770    1.16794    0.38160   1.00
C6       0.68129    1.11581    0.36721   1.00
C6       0.43178    0.87303    0.42735   1.00
C6       0.35827    0.79275    0.40011   1.00
H2       0.39669    0.76669    0.42560   1.00
H2       0.43198    0.73896    0.37874   1.00
C6       0.51986    0.72740    0.37854   1.00
C6       0.41641    0.66186    0.40042   1.00
H2       0.55932    0.76973    0.41991   1.00
C6       0.59898    0.86691    0.43372   1.00
C6       0.49687    0.75959    0.44556   1.00
H2       0.67814    1.04803    0.44280   1.00
H2       0.74134    1.13171    0.43602   1.00
H2       0.76108    1.08203    0.45237   1.00
H2       0.85300    1.07246    0.43052   1.00
H2       0.85242    1.09093    0.40465   1.00
H2       0.85255    1.14657    0.42321   1.00
H2       0.67723    0.92893    0.35180   1.00
H2       0.63644    0.97467    0.35799   1.00
H2       0.72283    1.01862    0.35015   1.00
H2       0.79450    0.97304    0.39506   1.00
H2       0.77321    0.93839    0.37069   1.00
H2       0.81787    1.02780    0.37360   1.00
H2       0.81987    1.14410    0.37227   1.00
H2       0.80354    1.21261    0.37341   1.00
H2       0.82801    1.18812    0.39528   1.00
H2       0.70549    1.11200    0.35334   1.00
H2       0.62891    1.07450    0.36689   1.00
H2       0.67976    1.16326    0.36627   1.00
H2       0.43997    0.91517    0.41755   1.00
H2       0.38766    0.86110    0.43688   1.00
H2       0.47554    0.89081    0.43741   1.00
H2       0.31435    0.78756    0.40857   1.00
H2       0.37152    0.83285    0.38896   1.00
H2       0.34058    0.74473    0.39206   1.00
H2       0.49725    0.68761    0.36695   1.00
H2       0.55414    0.77494    0.37067   1.00
H2       0.55044    0.71493    0.38855   1.00
H2       0.37372    0.66033    0.40857   1.00
H2       0.39461    0.62193    0.38884   1.00
H2       0.44521    0.64863    0.41096   1.00
H2       0.58348    0.90205    0.43966   1.00
H2       0.62741    0.85798    0.44555   1.00
H2       0.63414    0.89215    0.42128   1.00
H2       0.52944    0.75006    0.45570   1.00
H2       0.47848    0.78863    0.45406   1.00
H2       0.45322    0.71001    0.44184   1.00
C4       0.52767    0.50660    0.38412   1.00
C4       0.49817    0.53169    0.36976   1.00
C3       0.59859    0.52989    0.38524   1.00
C3       0.53571    0.57790    0.35393   1.00
C3       0.48417    0.45455    0.39802   1.00
C3       0.42727    0.50988    0.37117   1.00
C2       0.58294    0.45088    0.41294   1.00
C2       0.43448    0.57886    0.34103   1.00
C3       0.62547    0.50257    0.39917   1.00
C3       0.50491    0.60135    0.34007   1.00
C3       0.51243    0.42855    0.41221   1.00
C3       0.39664    0.53185    0.35653   1.00
H1       0.63283    0.56757    0.37602   1.00
H1       0.58642    0.59555    0.35193   1.00
C5       0.41277    0.42902    0.39771   1.00
C5       0.38713    0.46585    0.38703   1.00
H1       0.67713    0.52107    0.39917   1.00
H1       0.53470    0.63520    0.32905   1.00
H1       0.48084    0.39258    0.42245   1.00
H1       0.34504    0.51239    0.35697   1.00
O3       0.37003    0.37146    0.40869   1.00
O3       0.32255    0.45499    0.39108   1.00
Si1      0.33523    0.29667    0.39784   1.00
Si1      0.31463    0.50892    0.40563   1.00
C6       0.29955    0.24750    0.41994   1.00
C6       0.27130    0.29094    0.38134   1.00
C6       0.39527    0.27867    0.38660   1.00
C6       0.38959    0.58054    0.41483   1.00
C6       0.26969    0.53645    0.39028   1.00
C6       0.26138    0.46210    0.42600   1.00
C6       0.34822    0.26753    0.43875   1.00
H2       0.26098    0.26081    0.42411   1.00
C6       0.26108    0.16749    0.41915   1.00
H2       0.25833    0.32685    0.38820   1.00
C6       0.29116    0.31494    0.35887   1.00
C6       0.20258    0.22167    0.37993   1.00
H2       0.43326    0.29295    0.39862   1.00
C6       0.37080    0.20231    0.38141   1.00
C6       0.43497    0.31883    0.36710   1.00
C6       0.44071    0.56764    0.42735   1.00
C6       0.43394    0.64123    0.40014   1.00
H2       0.36930    0.60253    0.42559   1.00
H2       0.30661    0.56747    0.37868   1.00
C6       0.20726    0.47945    0.37841   1.00
C6       0.24483    0.58272    0.40035   1.00
H2       0.20995    0.43975    0.41977   1.00
C6       0.26754    0.40018    0.43358   1.00
C6       0.26200    0.50207    0.44546   1.00
H2       0.36974    0.32129    0.44266   1.00
H2       0.39044    0.25826    0.43587   1.00
H2       0.32088    0.23827    0.45217   1.00
H2       0.21964    0.14638    0.43025   1.00
H2       0.23888    0.14718    0.40439   1.00
H2       0.29433    0.14705    0.42297   1.00
H2       0.25204    0.32257    0.35162   1.00
H2       0.33853    0.36347    0.35786   1.00
H2       0.29630    0.27714    0.34996   1.00
H2       0.17876    0.20495    0.39480   1.00
H2       0.16550    0.22636    0.37043   1.00
H2       0.21039    0.18184    0.37334   1.00
H2       0.32485    0.18013    0.37205   1.00
H2       0.40974    0.19663    0.37324   1.00
H2       0.36063    0.17191    0.39507   1.00
H2       0.40708    0.29470    0.35320   1.00
H2       0.44594    0.37119    0.36681   1.00
H2       0.48401    0.32049    0.36617   1.00
H2       0.47479    0.55961    0.41755   1.00
H2       0.47276    0.61171    0.43691   1.00
H2       0.41473    0.52380    0.43738   1.00
H2       0.47256    0.68514    0.40863   1.00
H2       0.46094    0.62815    0.38899   1.00
H2       0.40358    0.65889    0.39209   1.00
H2       0.19009    0.50208    0.36682   1.00
H2       0.22067    0.44530    0.37053   1.00
H2       0.16417    0.44874    0.38839   1.00
H2       0.28588    0.62539    0.40853   1.00
H2       0.22670    0.60453    0.38877   1.00
H2       0.20275    0.55378    0.41085   1.00
H2       0.31816    0.41574    0.43954   1.00
H2       0.23012    0.37161    0.44538   1.00
H2       0.25777    0.36512    0.42112   1.00
H2       0.21986    0.46937    0.45557   1.00
H2       0.30939    0.52050    0.45399   1.00
H2       0.25598    0.54568    0.44175   1.00
C4       0.18725    0.35140    0.21857   1.00
C4       0.15786    0.29686    0.20419   1.00
C3       0.15266    0.35440    0.23616   1.00
C3       0.08898    0.24318    0.20497   1.00
C3       0.25460    0.40684    0.21516   1.00
C3       0.19914    0.29521    0.18808   1.00
C2       0.24895    0.46511    0.24638   1.00
C2       0.10179    0.18923    0.17427   1.00
C3       0.18246    0.40984    0.24962   1.00
C3       0.06186    0.19048    0.19054   1.00
C3       0.28424    0.46169    0.22913   1.00
C3       0.17003    0.24326    0.17321   1.00
H1       0.10488    0.31628    0.23973   1.00
H1       0.05637    0.24100    0.21597   1.00
C5       0.29200    0.40699    0.19787   1.00
C5       0.26902    0.34565    0.18678   1.00
H1       0.15480    0.40945    0.26201   1.00
H1       0.01187    0.15268    0.19197   1.00
H1       0.33329    0.50017    0.22679   1.00
H1       0.19904    0.24523    0.16106   1.00
O3       0.35186    0.46521    0.19284   1.00
O3       0.31279    0.33776    0.17392   1.00
Si1      0.35064    0.51941    0.17674   1.00
Si1      0.34795    0.29413    0.18174   1.00
C6       0.43634    0.58424    0.17990   1.00
C6       0.33679    0.48239    0.15243   1.00
C6       0.29389    0.54805    0.18373   1.00
C6       0.32590    0.25644    0.20608   1.00
C6       0.32285    0.23006    0.16329   1.00
C6       0.43692    0.34786    0.17991   1.00
C6       0.46157    0.60296    0.20237   1.00
H2       0.46413    0.56043    0.17371   1.00
C6       0.46539    0.65434    0.16857   1.00
H2       0.35611    0.44717    0.15425   1.00
C6       0.26167    0.43807    0.14479   1.00
C6       0.37687    0.52896    0.13403   1.00
H2       0.30647    0.56101    0.19972   1.00
C6       0.30354    0.61436    0.17321   1.00
C6       0.21484    0.49735    0.18277   1.00
C6       0.33794    0.30392    0.22470   1.00
C6       0.25458    0.19117    0.20944   1.00
H2       0.36168    0.23788    0.20809   1.00
H2       0.26832    0.19727    0.16597   1.00
C6       0.32919    0.25371    0.14068   1.00
C6       0.35501    0.18304    0.16446   1.00
H2       0.44797    0.34520    0.16392   1.00
C6       0.46473    0.42509    0.18411   1.00
C6       0.48373    0.32804    0.19216   1.00
H2       0.45343    0.55817    0.21091   1.00
H2       0.43492    0.62532    0.21023   1.00
H2       0.51624    0.63957    0.20299   1.00
H2       0.51911    0.67426    0.16481   1.00
H2       0.43866    0.65053    0.15451   1.00
H2       0.46325    0.69306    0.17791   1.00
H2       0.25923    0.40684    0.13181   1.00
H2       0.22844    0.40282    0.15635   1.00
H2       0.24075    0.46999    0.13994   1.00
H2       0.43182    0.55518    0.13661   1.00
H2       0.36774    0.49901    0.12017   1.00
H2       0.36139    0.56675    0.13108   1.00
H2       0.30335    0.60995    0.15672   1.00
H2       0.26335    0.62552    0.17740   1.00
H2       0.35084    0.65890    0.17791   1.00
H2       0.19385    0.49652    0.16780   1.00
H2       0.20042    0.44523    0.18644   1.00
H2       0.18857    0.51289    0.19360   1.00
H2       0.29598    0.31387    0.22677   1.00
H2       0.34184    0.28000    0.23866   1.00
H2       0.38495    0.35267    0.22333   1.00
H2       0.25241    0.16862    0.22430   1.00
H2       0.21310    0.20228    0.20898   1.00
H2       0.24414    0.15158    0.19828   1.00
H2       0.30192    0.20964    0.13067   1.00
H2       0.30659    0.28604    0.13843   1.00
H2       0.38217    0.28197    0.13567   1.00
H2       0.35104    0.16238    0.17967   1.00
H2       0.32837    0.13950    0.15421   1.00
H2       0.40867    0.21040    0.16002   1.00
H2       0.45441    0.43437    0.19958   1.00
H2       0.51964    0.45530    0.18150   1.00
H2       0.44076    0.44437    0.17387   1.00
H2       0.53692    0.35893    0.18739   1.00
H2       0.48156    0.33604    0.20842   1.00
H2       0.46944    0.27492    0.18974   1.00
C4       0.64177    0.83353    0.21619   1.00
C4       0.69761    0.86073    0.20225   1.00
C3       0.57937    0.83220    0.21243   1.00
C3       0.69903    0.89483    0.18402   1.00
C3       0.64850    0.80699    0.23515   1.00
C3       0.75551    0.85361    0.20657   1.00
C2       0.53254    0.78076    0.24559   1.00
C2       0.81312    0.91566    0.17506   1.00
C3       0.52639    0.80691    0.22676   1.00
C3       0.75490    0.92099    0.17070   1.00
C3       0.59396    0.78053    0.24924   1.00
C3       0.81249    0.88290    0.19338   1.00
H1       0.57051    0.84935    0.19913   1.00
H1       0.65971    0.90205    0.17994   1.00
C5       0.70954    0.80678    0.23986   1.00
C5       0.75660    0.81791    0.22409   1.00
H1       0.48263    0.80771    0.22325   1.00
H1       0.75285    0.94465    0.15765   1.00
H1       0.59880    0.75993    0.26254   1.00
H1       0.85527    0.88118    0.19734   1.00
O3       0.72030    0.79189    0.25930   1.00
O3       0.80535    0.79874    0.22649   1.00
Si1      0.76209    0.85357    0.27551   1.00
Si1      0.79223    0.72759    0.21623   1.00
C6       0.74710    0.80188    0.29712   1.00
C6       0.84876    0.89533    0.26844   1.00
C6       0.72709    0.90738    0.27852   1.00
C6       0.71732    0.67979    0.20174   1.00
C6       0.86396    0.75389    0.20064   1.00
C6       0.79638    0.67696    0.23584   1.00
C6       0.67152    0.74360    0.30040   1.00
H2       0.77542    0.77588    0.29349   1.00
C6       0.77297    0.83434    0.31863   1.00
H2       0.85210    0.85525    0.26023   1.00
C6       0.87543    0.95692    0.25342   1.00
C6       0.90407    0.91925    0.28550   1.00
H2       0.67284    0.87070    0.28043   1.00
C6       0.74907    0.95425    0.29776   1.00
C6       0.73261    0.95597    0.26068   1.00
C6       0.64710    0.65653    0.21221   1.00
C6       0.71235    0.70491    0.18000   1.00
H2       0.71827    0.63282    0.19883   1.00
H2       0.85626    0.78191    0.18844   1.00
C6       0.93446    0.80544    0.21029   1.00
C6       0.87326    0.69699    0.19025   1.00
H2       0.85094    0.69712    0.23804   1.00
C6       0.76929    0.68343    0.25699   1.00
C6       0.76488    0.59872    0.23186   1.00
H2       0.65176    0.71059    0.28710   1.00
H2       0.63808    0.76444    0.30348   1.00
H2       0.66754    0.71090    0.31314   1.00
H2       0.78685    0.80247    0.32760   1.00
H2       0.81747    0.88513    0.31796   1.00
H2       0.73379    0.83811    0.32725   1.00
H2       0.92460    0.96859    0.24697   1.00
H2       0.84107    0.94619    0.24065   1.00
H2       0.88263    1.00277    0.26110   1.00
H2       0.89583    0.87695    0.29530   1.00
H2       0.95519    0.93956    0.27910   1.00
H2       0.90434    0.95938    0.29477   1.00
H2       0.80452    0.98494    0.29889   1.00
H2       0.72872    0.98908    0.29762   1.00
H2       0.72919    0.92446    0.31154   1.00
H2       0.78010    1.00480    0.26126   1.00
H2       0.72983    0.93462    0.24578   1.00
H2       0.69082    0.96697    0.26161   1.00
H2       0.63379    0.69658    0.21195   1.00
H2       0.60634    0.61255    0.20431   1.00
H2       0.64636    0.64128    0.22791   1.00
H2       0.66770    0.66551    0.17197   1.00
H2       0.70723    0.75017    0.18042   1.00
H2       0.75641    0.71599    0.17064   1.00
H2       0.97391    0.82749    0.19859   1.00
H2       0.93282    0.84791    0.21761   1.00
H2       0.95067    0.78113    0.22154   1.00
H2       0.82686    0.65953    0.18254   1.00
H2       0.91344    0.71919    0.17875   1.00
H2       0.88783    0.67043    0.20122   1.00
H2       0.71512    0.66709    0.25662   1.00
H2       0.77736    0.65357    0.26853   1.00
H2       0.79664    0.73620    0.26194   1.00
H2       0.77977    0.57511    0.24377   1.00
H2       0.70920    0.57257    0.23155   1.00
H2       0.78245    0.58884    0.21755   1.00
C4       0.16541    0.80730    0.21622   1.00
C4       0.13834    0.83619    0.20232   1.00
C3       0.15509    0.74033    0.21433   1.00
C3       0.09324    0.79900    0.18623   1.00
C3       0.20417    0.84675    0.23320   1.00
C3       0.15717    0.90619    0.20441   1.00
C2       0.21897    0.75137    0.24554   1.00
C2       0.08461    0.89789    0.17511   1.00
C3       0.18078    0.71295    0.22863   1.00
C3       0.06759    0.82913    0.17288   1.00
C3       0.23073    0.81866    0.24726   1.00
C3       0.12847    0.93477    0.19134   1.00
H1       0.12880    0.70955    0.20246   1.00
H1       0.07735    0.74881    0.18382   1.00
C5       0.21639    0.91410    0.23599   1.00
C5       0.20401    0.94718    0.21963   1.00
H1       0.17127    0.66403    0.22655   1.00
H1       0.03563    0.79991    0.16142   1.00
H1       0.26003    0.84823    0.25905   1.00
H1       0.13902    0.98366    0.19385   1.00
O3       0.24370    0.94763    0.25399   1.00
O3       0.23317    1.01733    0.21943   1.00
Si1      0.19326    0.94430    0.27221   1.00
Si1      0.30115    1.06237    0.20568   1.00
C6       0.25654    0.98428    0.29103   1.00
C6       0.15913    0.99610    0.26497   1.00
C6       0.13236    0.86024    0.27929   1.00
C6       0.33258    1.01878    0.19095   1.00
C6       0.27671    1.10825    0.18961   1.00
C6       0.36532    1.12091    0.22202   1.00
C6       0.30796    0.95736    0.29326   1.00
H2       0.28666    1.03607    0.28512   1.00
C6       0.23720    0.99250    0.31331   1.00
H2       0.19788    1.03180    0.25450   1.00
C6       0.09055    0.96266    0.25285   1.00
C6       0.15119    1.04131    0.28148   1.00
H2       0.16360    0.83611    0.28074   1.00
C6       0.09602    0.85040    0.30026   1.00
C6       0.07278    0.81463    0.26429   1.00
C6       0.35145    0.96949    0.20209   1.00
C6       0.29418    0.98122    0.17108   1.00
H2       0.38093    1.06049    0.18538   1.00
H2       0.23966    1.06949    0.17941   1.00
C6       0.23816    1.14159    0.19992   1.00
C6       0.33308    1.16436    0.17585   1.00
H2       0.35369    1.16199    0.22367   1.00
C6       0.36495    1.09578    0.24406   1.00
C6       0.44110    1.15553    0.21460   1.00
H2       0.33303    0.95984    0.27887   1.00
H2       0.28223    0.90449    0.29850   1.00
H2       0.34840    0.98811    0.30408   1.00
H2       0.27765    1.03983    0.31992   1.00
H2       0.19015    0.99419    0.31418   1.00
H2       0.23143    0.95127    0.32322   1.00
H2       0.08267    1.00171    0.24565   1.00
H2       0.09002    0.92991    0.24069   1.00
H2       0.04708    0.93278    0.26280   1.00
H2       0.19961    1.07478    0.28898   1.00
H2       0.13450    1.07473    0.27477   1.00
H2       0.11350    1.00990    0.29289   1.00
H2       0.07285    0.88254    0.30143   1.00
H2       0.05590    0.79751    0.30272   1.00
H2       0.13140    0.86208    0.31277   1.00
H2       0.02889    0.82181    0.26619   1.00
H2       0.08735    0.82404    0.24846   1.00
H2       0.05505    0.76069    0.26710   1.00
H2       0.30687    0.91938    0.20450   1.00
H2       0.38754    0.96184    0.19304   1.00
H2       0.37543    0.98942    0.21672   1.00
H2       0.32476    0.96528    0.16228   1.00
H2       0.24572    0.93549    0.17422   1.00
H2       0.28464    1.01405    0.16115   1.00
H2       0.21510    1.15863    0.18843   1.00
H2       0.19670    1.10516    0.20960   1.00
H2       0.27214    1.18568    0.20914   1.00
H2       0.36149    1.14496    0.16753   1.00
H2       0.31007    1.18212    0.16455   1.00
H2       0.36903    1.20858    0.18473   1.00
H2       0.37352    1.05251    0.24442   1.00
H2       0.40366    1.13629    0.25350   1.00
H2       0.31596    1.07996    0.25111   1.00
H2       0.47446    1.19787    0.22456   1.00
H2       0.45984    1.11945    0.21450   1.00
H2       0.44705    1.17663    0.19939   1.00
C4       1.01832    0.51978    0.61485   1.00
C4       0.96386    0.49064    0.62926   1.00
C3       1.02804    0.48149    0.59950   1.00
C3       0.91747    0.41953    0.63092   1.00
C3       1.06668    0.59098    0.61590   1.00
C3       0.95460    0.53450    0.64281   1.00
C2       1.13168    0.58187    0.58692   1.00
C2       0.85598    0.43555    0.65911   1.00
C3       1.08335    0.51155    0.58599   1.00
C3       0.86462    0.39275    0.64531   1.00
C3       1.12141    0.62058    0.60189   1.00
C3       0.90283    0.50627    0.65776   1.00
H1       0.99508    0.43067    0.59763   1.00
H1       0.92097    0.38505    0.62183   1.00
C5       1.05990    0.63219    0.63089   1.00
C5       0.99732    0.60620    0.64152   1.00
H1       1.08804    0.48121    0.57529   1.00
H1       0.83224    0.34096    0.64570   1.00
H1       1.15461    0.67205    0.60247   1.00
H1       0.89961    0.53798    0.66818   1.00
O3       1.11235    0.69785    0.63404   1.00
O3       0.98115    0.64982    0.65158   1.00
Si1      1.16966    0.71293    0.65139   1.00
Si1      0.92926    0.67060    0.64077   1.00
C6       1.22550    0.79927    0.64520   1.00
C6       1.13091    0.70505    0.67520   1.00
C6       1.20978    0.66373    0.64839   1.00
C6       0.89380    0.63377    0.61700   1.00
C6       0.86368    0.64551    0.65870   1.00
C6       0.97242    0.76022    0.63902   1.00
C6       1.24274    0.81510    0.62211   1.00
H2       1.19522    0.82294    0.64914   1.00
C6       1.29524    0.84206    0.65658   1.00
H2       1.09022    0.71568    0.67141   1.00
C6       1.09508    0.63362    0.68576   1.00
C6       1.17332    0.75693    0.69233   1.00
H2       1.22252    0.67013    0.63226   1.00
C6       1.27863    0.68814    0.65996   1.00
C6       1.16812    0.58477    0.65243   1.00
C6       0.94372    0.64429    0.59919   1.00
C6       0.83555    0.55739    0.61595   1.00
H2       0.86832    0.66187    0.61255   1.00
H2       0.83747    0.58993    0.65825   1.00
C6       0.88674    0.66514    0.68128   1.00
C6       0.80829    0.66598    0.65455   1.00
H2       0.96692    0.77674    0.65411   1.00
C6       1.05086    0.79623    0.63533   1.00
C6       0.94440    0.79348    0.62382   1.00
H2       1.19658    0.79653    0.61297   1.00
H2       1.27137    0.79147    0.61641   1.00
H2       1.27320    0.87000    0.61940   1.00
H2       1.30776    0.89524    0.65781   1.00
H2       1.29467    0.82366    0.67184   1.00
H2       1.33754    0.84249    0.64848   1.00
H2       1.06133    0.63194    0.69790   1.00
H2       1.06331    0.59281    0.67529   1.00
H2       1.13232    0.62234    0.69254   1.00
H2       1.19272    0.80946    0.68741   1.00
H2       1.14196    0.74984    0.70574   1.00
H2       1.21608    0.75067    0.69708   1.00
H2       1.27303    0.69452    0.67613   1.00
H2       1.29723    0.65211    0.65836   1.00
H2       1.31899    0.73595    0.65385   1.00
H2       1.16977    0.57242    0.66835   1.00
H2       1.11485    0.56149    0.64826   1.00
H2       1.18955    0.55902    0.64361   1.00
H2       0.96120    0.60740    0.59973   1.00
H2       0.91827    0.63762    0.58458   1.00
H2       0.98829    0.69522    0.59919   1.00
H2       0.81259    0.54510    0.60083   1.00
H2       0.85405    0.52224    0.61900   1.00
H2       0.79423    0.54632    0.62652   1.00
H2       0.84338    0.63772    0.69153   1.00
H2       0.92483    0.65127    0.68560   1.00
H2       0.90822    0.71961    0.68401   1.00
H2       0.78764    0.65224    0.63922   1.00
H2       0.76538    0.63931    0.66501   1.00
H2       0.82872    0.72064    0.65665   1.00
H2       1.06330    0.78169    0.62088   1.00
H2       1.07425    0.85170    0.63564   1.00
H2       1.07477    0.78248    0.64727   1.00
H2       0.96867    0.84846    0.62637   1.00
H2       0.95421    0.78568    0.60809   1.00
H2       0.88969    0.77283    0.62562   1.00
C4       0.50194    -0.01818   0.61481   1.00
C4       0.52717    0.03631    0.62920   1.00
C3       0.45848    -0.02472   0.59839   1.00
C3       0.50657    0.08612    0.62972   1.00
C3       0.51999    -0.06990   0.61698   1.00
C3       0.57588    0.04200    0.64396   1.00
C2       0.45033    -0.13172   0.58694   1.00
C2       0.57941    0.14406    0.65909   1.00
C3       0.43306    -0.08010   0.58490   1.00
C3       0.53242    0.13889    0.64413   1.00
C3       0.49484    -0.12468   0.60299   1.00
C3       0.59908    0.09383    0.65888   1.00
H1       0.44422    0.01069    0.59571   1.00
H1       0.47186    0.08528    0.61973   1.00
C5       0.56328    -0.06640   0.63306   1.00
C5       0.60075    -0.00433   0.64389   1.00
H1       0.40142    -0.08238   0.57340   1.00
H1       0.51614    0.17381    0.64366   1.00
H1       0.50974    -0.16037   0.60440   1.00
H1       0.63057    0.09460    0.67012   1.00
O3       0.57136    -0.12164   0.63713   1.00
O3       0.65711    0.00801    0.65524   1.00
Si1      0.52288    -0.17783   0.65401   1.00
Si1      0.73296    0.05637    0.64572   1.00
C6       0.54929    -0.23785   0.64923   1.00
C6       0.55026    -0.14000   0.67810   1.00
C6       0.43492    -0.21279   0.64922   1.00
C6       0.73938    0.09316    0.62158   1.00
C6       0.77280    0.12125    0.66389   1.00
C6       0.77464    0.00831    0.64564   1.00
C6       0.55161    -0.25558   0.62636   1.00
H2       0.60241    -0.21047   0.65419   1.00
C6       0.51581    -0.30803   0.66068   1.00
H2       0.60329    -0.10167   0.67516   1.00
C6       0.51653    -0.10032   0.68733   1.00
C6       0.55249    -0.18457   0.69590   1.00
H2       0.43135    -0.22551   0.63310   1.00
C6       0.38470    -0.28077   0.66040   1.00
C6       0.40140    -0.16696   0.65183   1.00
C6       0.70172    0.04439    0.60338   1.00
C6       0.72658    0.15476    0.61942   1.00
H2       0.79361    0.11560    0.61821   1.00
H2       0.74670    0.15052    0.66240   1.00
C6       0.76296    0.09765    0.68657   1.00
C6       0.85055    0.17301    0.66104   1.00
H2       0.79292    0.01238    0.66118   1.00
C6       0.72892    -0.06973   0.64177   1.00
C6       0.83874    0.03281    0.63171   1.00
H2       0.58346    -0.20985   0.61743   1.00
H2       0.50060    -0.28137   0.61968   1.00
H2       0.57334    -0.28889   0.62463   1.00
H2       0.55359    -0.32396   0.66309   1.00
H2       0.49548    -0.30613   0.67545   1.00
H2       0.47426    -0.34872   0.65203   1.00
H2       0.54718    -0.06775   0.69986   1.00
H2       0.51248    -0.06679   0.67629   1.00
H2       0.46579    -0.13530   0.69328   1.00
H2       0.58386    -0.20708   0.69205   1.00
H2       0.57521    -0.15391   0.70953   1.00
H2       0.50129    -0.22522   0.69988   1.00
H2       0.39313    -0.27585   0.67677   1.00
H2       0.33129    -0.29601   0.65763   1.00
H2       0.39014    -0.32307   0.65495   1.00
H2       0.38444    -0.16763   0.66737   1.00
H2       0.43501    -0.11404   0.64782   1.00
H2       0.35647    -0.18567   0.64208   1.00
H2       0.64819    0.03030    0.60275   1.00
H2       0.72476    0.06935    0.58900   1.00
H2       0.70450    -0.00218   0.60404   1.00
H2       0.74177    0.17773    0.60435   1.00
H2       0.67311    0.13954    0.62132   1.00
H2       0.75639    0.19529    0.63026   1.00
H2       0.77927    0.14134    0.69672   1.00
H2       0.70939    0.06205    0.69000   1.00
H2       0.79239    0.07301    0.69038   1.00
H2       0.86200    0.19386    0.64570   1.00
H2       0.86707    0.21620    0.67140   1.00
H2       0.88138    0.14935    0.66424   1.00
H2       0.70523    -0.08063   0.62681   1.00
H2       0.75785    -0.09629   0.64315   1.00
H2       0.68847    -0.09171   0.65299   1.00
H2       0.86583    0.00544    0.63530   1.00
H2       0.82451    0.02395    0.61569   1.00
H2       0.87508    0.08691    0.63375   1.00
C4       0.47988    0.49808    0.61481   1.00
C4       0.50914    0.47284    0.62921   1.00
C3       0.51685    0.54169    0.59843   1.00
C3       0.57957    0.49358    0.62976   1.00
C3       0.41006    0.47987    0.61695   1.00
C3       0.46608    0.42399    0.64392   1.00
C2       0.41795    0.54967    0.58694   1.00
C2       0.56463    0.42059    0.65909   1.00
C3       0.48690    0.56711    0.58494   1.00
C3       0.60649    0.46772    0.64416   1.00
C3       0.38043    0.50502    0.60295   1.00
C3       0.49470    0.40077    0.65885   1.00
H1       0.56657    0.55607    0.59577   1.00
H1       0.61347    0.52840    0.61979   1.00
C5       0.37021    0.43642    0.63299   1.00
C5       0.39486    0.39898    0.64381   1.00
H1       0.51629    0.59886    0.57346   1.00
H1       0.65772    0.48411    0.64373   1.00
H1       0.32980    0.49000    0.60434   1.00
H1       0.46394    0.36917    0.67006   1.00
O3       0.30681    0.42817    0.63703   1.00
O3       0.35084    0.34250    0.65513   1.00
Si1      0.29885    0.47645    0.65393   1.00
Si1      0.32357    0.26674    0.64556   1.00
C6       0.21243    0.44991    0.64911   1.00
C6       0.30923    0.44896    0.67801   1.00
C6       0.35174    0.56447    0.64920   1.00
C6       0.35415    0.26057    0.62143   1.00
C6       0.34861    0.22688    0.66372   1.00
C6       0.23381    0.22490    0.64543   1.00
C6       0.19251    0.44770    0.62623   1.00
H2       0.18674    0.39675    0.65403   1.00
C6       0.17553    0.48317    0.66056   1.00
H2       0.29465    0.39598    0.67505   1.00
C6       0.38258    0.48276    0.68729   1.00
C6       0.26225    0.44650    0.69579   1.00
H2       0.34268    0.56812    0.63308   1.00
C6       0.33377    0.61450    0.66039   1.00
C6       0.43110    0.59812    0.65185   1.00
C6       0.34306    0.29829    0.60324   1.00
C6       0.42863    0.27355    0.61931   1.00
H2       0.32247    0.20636    0.61802   1.00
H2       0.40400    0.25309    0.66226   1.00
C6       0.33465    0.23651    0.68641   1.00
C6       0.32279    0.14918    0.66083   1.00
H2       0.21953    0.20649    0.66096   1.00
C6       0.20137    0.27051    0.64157   1.00
C6       0.19441    0.16087    0.63145   1.00
H2       0.20655    0.41599    0.61729   1.00
H2       0.21768    0.49875    0.61958   1.00
H2       0.13747    0.42587    0.62446   1.00
H2       0.12182    0.44530    0.66293   1.00
H2       0.19763    0.50343    0.67534   1.00
H2       0.17634    0.52474    0.65192   1.00
H2       0.38449    0.45206    0.69981   1.00
H2       0.42026    0.48697    0.67627   1.00
H2       0.39820    0.53344    0.69326   1.00
H2       0.20841    0.41507    0.69191   1.00
H2       0.27016    0.42372    0.70942   1.00
H2       0.27266    0.49763    0.69980   1.00
H2       0.33017    0.60597    0.67676   1.00
H2       0.37188    0.66797    0.65766   1.00
H2       0.28602    0.60900    0.65493   1.00
H2       0.44726    0.61499    0.66741   1.00
H2       0.45054    0.56462    0.64784   1.00
H2       0.45730    0.64313    0.64213   1.00
H2       0.38243    0.35186    0.60265   1.00
H2       0.34514    0.27538    0.58885   1.00
H2       0.29365    0.29539    0.60389   1.00
H2       0.43655    0.25850    0.60423   1.00
H2       0.46678    0.32703    0.62124   1.00
H2       0.43936    0.24373    0.63014   1.00
H2       0.36204    0.22022    0.69655   1.00
H2       0.35250    0.29004    0.68986   1.00
H2       0.28056    0.20696    0.69017   1.00
H2       0.33233    0.13788    0.64549   1.00
H2       0.34946    0.13267    0.67119   1.00
H2       0.26828    0.11823    0.66399   1.00
H2       0.21422    0.29431    0.62662   1.00
H2       0.14587    0.24147    0.64291   1.00
H2       0.21969    0.31087    0.65281   1.00
H2       0.13994    0.13367    0.63502   1.00
H2       0.19986    0.17522    0.61545   1.00
H2       0.21227    0.12461    0.63349   1.00
C4       0.47794    -0.02432   0.11692   1.00
C4       0.50769    0.03173    0.13078   1.00
C3       0.50233    -0.07060   0.11414   1.00
C3       0.56840    0.05075    0.14186   1.00
C3       0.42124    -0.03455   0.10485   1.00
C3       0.47533    0.07128    0.13391   1.00
C2       0.41710    -0.13438   0.08785   1.00
C2       0.56548    0.14672    0.15818   1.00
C3       0.47304    -0.12389   0.09993   1.00
C3       0.59618    0.10626    0.15533   1.00
C3       0.39160    -0.08938   0.09087   1.00
C3       0.50575    0.12877    0.14689   1.00
H1       0.54195    -0.06710   0.12241   1.00
H1       0.59445    0.02512    0.14038   1.00
C5       0.39433    0.00987    0.10688   1.00
C5       0.41320    0.05372    0.12396   1.00
H1       0.49317    -0.15546   0.09849   1.00
H1       0.63986    0.11729    0.16306   1.00
H1       0.34977    -0.09723   0.08272   1.00
H1       0.48435    0.15912    0.14797   1.00
O3       0.34750    0.00697    0.09298   1.00
O3       0.37431    0.08233    0.12973   1.00
Si1      0.37337    0.05739    0.07327   1.00
Si1      0.32083    0.04820    0.14853   1.00
C6       0.29426    0.02056    0.06053   1.00
C6       0.39802    0.14024    0.08190   1.00
C6       0.43532    0.05081    0.05873   1.00
C6       0.31741    -0.02226   0.16120   1.00
C6       0.34687    0.11627    0.16560   1.00
C6       0.23944    0.02667    0.13934   1.00
C6       0.25466    -0.05922   0.05896   1.00
H2       0.26377    0.03290    0.07065   1.00
C6       0.28783    0.04646    0.03900   1.00
H2       0.36792    0.12971    0.09574   1.00
C6       0.47390    0.18780    0.08844   1.00
C6       0.37973    0.18618    0.06864   1.00
H2       0.41279    -0.00438   0.05720   1.00
C6       0.44814    0.07989    0.03660   1.00
C6       0.50890    0.07832    0.06764   1.00
C6       0.30138    -0.08664   0.14836   1.00
C6       0.37611    -0.01049   0.17614   1.00
H2       0.27339    -0.03863   0.17115   1.00
H2       0.39562    0.12449    0.17133   1.00
C6       0.36256    0.18615    0.15620   1.00
C6       0.30084    0.10441    0.18459   1.00
H2       0.23908    0.07468    0.13980   1.00
C6       0.22427    0.00305    0.11679   1.00
C6       0.17563    -0.02567   0.15178   1.00
H2       0.24665    -0.08299   0.07388   1.00
H2       0.28233    -0.07721   0.04960   1.00
H2       0.20415    -0.07813   0.05229   1.00
H2       0.23782    0.04229    0.03737   1.00
H2       0.32612    0.09936    0.03626   1.00
H2       0.29195    0.01615    0.02678   1.00
H2       0.47914    0.23088    0.09736   1.00
H2       0.49261    0.16141    0.09796   1.00
H2       0.50723    0.20856    0.07525   1.00
H2       0.32508    0.16122    0.06563   1.00
H2       0.39307    0.23401    0.07638   1.00
H2       0.40716    0.19914    0.05422   1.00
H2       0.45977    0.13287    0.03648   1.00
H2       0.49050    0.07793    0.02927   1.00
H2       0.40427    0.04988    0.02694   1.00
H2       0.54243    0.13238    0.06439   1.00
H2       0.50960    0.07216    0.08391   1.00
H2       0.53238    0.05090    0.06087   1.00
H2       0.34694    -0.08130   0.14106   1.00
H2       0.28121    -0.13181   0.15805   1.00
H2       0.26335    -0.09729   0.13669   1.00
H2       0.36207    -0.05679   0.18485   1.00
H2       0.42334    0.00280    0.16826   1.00
H2       0.38661    0.02934    0.18722   1.00
H2       0.38915    0.22733    0.16720   1.00
H2       0.39583    0.19910    0.14296   1.00
H2       0.31620    0.18598    0.15160   1.00
H2       0.28887    0.05744    0.19253   1.00
H2       0.32705    0.14614    0.19545   1.00
H2       0.25312    0.10223    0.18041   1.00
H2       0.22576    -0.04371   0.11414   1.00
H2       0.17447    -0.00541   0.11196   1.00
H2       0.26202    0.04231    0.10699   1.00
H2       0.12947    -0.02673   0.14635   1.00
H2       0.16753    -0.07731   0.15045   1.00
H2       0.18055    -0.01235   0.16782   1.00
C4       1.02163    0.49369    0.11608   1.00
C4       0.96696    0.46869    0.13041   1.00
C3       1.07489    0.47791    0.11685   1.00
C3       0.96342    0.43062    0.14794   1.00
C3       1.02429    0.53783    0.10020   1.00
C3       0.91236    0.48200    0.12717   1.00
C2       1.13223    0.54902    0.08712   1.00
C2       0.85543    0.42124    0.15891   1.00
C3       1.12888    0.50509    0.10285   1.00
C3       0.90890    0.40698    0.16170   1.00
C3       1.07851    0.56370    0.08600   1.00
C3       0.85939    0.46023    0.14168   1.00
H1       1.07590    0.44601    0.12756   1.00
H1       1.00056    0.41930    0.15130   1.00
C5       0.97262    0.55562    0.09857   1.00
C5       0.91112    0.51743    0.10960   1.00
H1       1.16624    0.49226    0.10424   1.00
H1       0.90875    0.37919    0.17403   1.00
H1       1.07873    0.59378    0.07437   1.00
H1       0.82300    0.47391    0.13981   1.00
O3       0.98118    0.60672    0.08546   1.00
O3       0.85303    0.51907    0.10413   1.00
Si1      1.01397    0.68487    0.09374   1.00
Si1      0.79457    0.45604    0.09089   1.00
C6       1.02228    0.72402    0.06995   1.00
C6       0.95159    0.68863    0.10879   1.00
C6       1.09407    0.71560    0.10555   1.00
C6       0.80716    0.38700    0.08492   1.00
C6       0.72129    0.42684    0.10597   1.00
C6       0.78210    0.49109    0.06855   1.00
C6       1.05524    0.70240    0.05267   1.00
H2       0.96916    0.70354    0.06543   1.00
C6       1.05615    0.80354    0.06804   1.00
H2       0.90450    0.64669    0.10264   1.00
C6       0.95000    0.67405    0.13204   1.00
C6       0.94348    0.75318    0.10722   1.00
H2       1.12103    0.70112    0.09467   1.00
C6       1.13928    0.79468    0.10836   1.00
C6       1.09842    0.68550    0.12662   1.00
C6       0.87330    0.40263    0.07311   1.00
C6       0.79734    0.33416    0.10180   1.00
H2       0.76534    0.35736    0.07441   1.00
H2       0.73129    0.40315    0.11893   1.00
C6       0.70829    0.48307    0.11520   1.00
C6       0.65201    0.37131    0.09668   1.00
H2       0.74851    0.51023    0.07324   1.00
C6       0.84636    0.55429    0.05961   1.00
C6       0.74571    0.44206    0.05025   1.00
H2       1.02794    0.64718    0.05052   1.00
H2       1.10845    0.71863    0.05608   1.00
H2       1.05373    0.72481    0.03813   1.00
H2       1.03213    0.81641    0.05575   1.00
H2       1.05147    0.82739    0.08178   1.00
H2       1.11036    0.82795    0.06436   1.00
H2       0.90148    0.66362    0.13871   1.00
H2       0.95484    0.62945    0.13512   1.00
H2       0.99056    0.71772    0.14004   1.00
H2       0.93403    0.76233    0.09162   1.00
H2       0.89984    0.74691    0.11608   1.00
H2       0.98878    0.79849    0.11291   1.00
H2       1.11131    0.81549    0.11625   1.00
H2       1.18565    0.80863    0.11704   1.00
H2       1.15700    0.82042    0.09387   1.00
H2       1.09130    0.71234    0.13929   1.00
H2       1.06124    0.63193    0.12840   1.00
H2       1.14870    0.69041    0.12848   1.00
H2       0.91671    0.41901    0.08326   1.00
H2       0.86622    0.35692    0.06530   1.00
H2       0.88679    0.44179    0.06160   1.00
H2       0.79733    0.28985    0.09518   1.00
H2       0.83794    0.35543    0.11304   1.00
H2       0.74874    0.31458    0.10967   1.00
H2       0.66896    0.46124    0.12694   1.00
H2       0.75420    0.52359    0.12241   1.00
H2       0.69147    0.50623    0.10374   1.00
H2       0.65572    0.32873    0.09037   1.00
H2       0.61243    0.35021    0.10837   1.00
H2       0.63460    0.39254    0.08477   1.00
H2       0.88542    0.54228    0.05501   1.00
H2       0.83355    0.57527    0.04651   1.00
H2       0.86858    0.59443    0.07092   1.00
H2       0.73174    0.46739    0.03863   1.00
H2       0.77871    0.42569    0.04311   1.00
H2       0.69870    0.39674    0.05489   1.00
C4       0.50660    0.52766    0.11587   1.00
C4       0.53169    0.49817    0.13024   1.00
C3       0.53002    0.59860    0.11472   1.00
C3       0.57803    0.53574    0.14603   1.00
C3       0.45443    0.48414    0.10201   1.00
C3       0.50975    0.42723    0.12886   1.00
C2       0.45088    0.58293    0.08706   1.00
C2       0.57886    0.43449    0.15897   1.00
C3       0.50269    0.62548    0.10080   1.00
C3       0.60149    0.50495    0.15989   1.00
C3       0.42843    0.51240    0.08783   1.00
C3       0.53172    0.39661    0.14351   1.00
H1       0.56778    0.63286    0.12392   1.00
H1       0.59578    0.58649    0.14802   1.00
C5       0.42878    0.41273    0.10235   1.00
C5       0.46558    0.38705    0.11303   1.00
H1       0.52128    0.67716    0.10077   1.00
H1       0.63543    0.53477    0.17090   1.00
H1       0.39237    0.48079    0.07760   1.00
H1       0.51217    0.34499    0.14309   1.00
O3       0.37111    0.36999    0.09141   1.00
O3       0.45457    0.32240    0.10900   1.00
Si1      0.29640    0.33539    0.10230   1.00
Si1      0.50834    0.31427    0.09444   1.00
C6       0.24707    0.29963    0.08024   1.00
C6       0.29065    0.27149    0.11883   1.00
C6       0.27862    0.39559    0.11353   1.00
C6       0.57998    0.38910    0.08519   1.00
C6       0.53583    0.26931    0.10979   1.00
C6       0.46132    0.26093    0.07411   1.00
C6       0.26706    0.34820    0.06140   1.00
H2       0.26026    0.26097    0.07607   1.00
C6       0.16707    0.26130    0.08106   1.00
H2       0.32645    0.25840    0.11195   1.00
C6       0.31481    0.29147    0.14128   1.00
C6       0.22131    0.20286    0.12029   1.00
H2       0.29289    0.43352    0.10149   1.00
C6       0.20232    0.37129    0.11876   1.00
C6       0.31895    0.43537    0.13300   1.00
C6       0.56712    0.44022    0.07265   1.00
C6       0.64080    0.43345    0.09984   1.00
H2       0.60183    0.36867    0.07443   1.00
H2       0.56698    0.30628    0.12137   1.00
C6       0.47884    0.20701    0.12171   1.00
C6       0.58194    0.24427    0.09972   1.00
H2       0.43893    0.20953    0.08037   1.00
C6       0.39944    0.26718    0.06655   1.00
C6       0.50113    0.26135    0.05463   1.00
H2       0.32079    0.36961    0.05746   1.00
H2       0.25791    0.39050    0.06427   1.00
H2       0.23769    0.32081    0.04800   1.00
H2       0.14582    0.21979    0.06999   1.00
H2       0.14683    0.23921    0.09585   1.00
H2       0.14670    0.29461    0.07724   1.00
H2       0.32239    0.25233    0.14854   1.00
H2       0.36340    0.33879    0.14226   1.00
H2       0.27711    0.29675    0.15020   1.00
H2       0.20447    0.17896    0.10544   1.00
H2       0.22598    0.16579    0.12980   1.00
H2       0.18158    0.21080    0.12689   1.00
H2       0.18013    0.32540    0.12814   1.00
H2       0.19678    0.41034    0.12692   1.00
H2       0.17185    0.36109    0.10511   1.00
H2       0.29486    0.40758    0.14692   1.00
H2       0.37127    0.44624    0.13327   1.00
H2       0.32071    0.48446    0.13391   1.00
H2       0.55924    0.47442    0.08244   1.00
H2       0.61115    0.47216    0.06306   1.00
H2       0.52321    0.41425    0.06265   1.00
H2       0.68469    0.47197    0.09132   1.00
H2       0.62785    0.46057    0.11098   1.00
H2       0.65842    0.40308    0.10790   1.00
H2       0.50148    0.18984    0.13330   1.00
H2       0.44481    0.22055    0.12959   1.00
H2       0.44801    0.16388    0.11175   1.00
H2       0.62460    0.28522    0.09150   1.00
H2       0.60376    0.22614    0.11129   1.00
H2       0.55287    0.20213    0.08924   1.00
H2       0.41505    0.31778    0.06056   1.00
H2       0.37074    0.22972    0.05477   1.00
H2       0.36447    0.25755    0.07902   1.00
H2       0.46831    0.21917    0.04455   1.00
H2       0.51958    0.30870    0.04608   1.00
H2       0.54471    0.25526    0.05832   1.00
C4       0.64256    0.81178    0.71651   1.00
C4       0.69863    0.84142    0.70265   1.00
C3       0.60026    0.84005    0.72068   1.00
C3       0.72178    0.90538    0.69301   1.00
C3       0.62815    0.75104    0.72710   1.00
C3       0.73384    0.80554    0.69800   1.00
C2       0.53228    0.75063    0.74549   1.00
C2       0.81338    0.89863    0.67516   1.00
C3       0.54688    0.81058    0.73485   1.00
C3       0.77717    0.93293    0.67950   1.00
C3       0.57326    0.72138    0.74106   1.00
C3       0.79134    0.83554    0.68502   1.00
H1       0.60685    0.88274    0.71349   1.00
H1       0.69937    0.93403    0.69562   1.00
C5       0.66846    0.72015    0.72363   1.00
C5       0.71197    0.74026    0.70645   1.00
H1       0.51831    0.83357    0.73735   1.00
H1       0.79128    0.97910    0.67284   1.00
H1       0.56234    0.67678    0.74813   1.00
H1       0.81864    0.81124    0.68286   1.00
O3       0.66186    0.66860    0.73621   1.00
O3       0.73619    0.69912    0.69915   1.00
Si1      0.71219    0.68665    0.75579   1.00
Si1      0.69919    0.65098    0.67946   1.00
C6       0.67050    0.60467    0.76684   1.00
C6       0.79348    0.70762    0.74659   1.00
C6       0.71092    0.74781    0.77212   1.00
C6       0.63152    0.65607    0.66783   1.00
C6       0.76646    0.67659    0.66211   1.00
C6       0.67197    0.56627    0.68667   1.00
C6       0.59094    0.56965    0.76855   1.00
H2       0.67983    0.57455    0.75571   1.00
C6       0.69474    0.59081    0.78772   1.00
H2       0.78097    0.68062    0.73212   1.00
C6       0.84516    0.78394    0.74146   1.00
C6       0.83593    0.68188    0.75858   1.00
H2       0.65628    0.72851    0.77388   1.00
C6       0.73977    0.75347    0.79408   1.00
C6       0.74324    0.82389    0.76488   1.00
C6       0.56859    0.64154    0.68119   1.00
C6       0.64757    0.71945    0.65440   1.00
H2       0.61228    0.61420    0.65694   1.00
H2       0.77831    0.72775    0.65763   1.00
C6       0.83460    0.68503    0.67083   1.00
C6       0.75139    0.63443    0.64208   1.00
H2       0.71788    0.56219    0.68545   1.00
C6       0.64811    0.54706    0.70909   1.00
C6       0.61671    0.50737    0.67330   1.00
H2       0.56756    0.56682    0.75382   1.00
H2       0.57597    0.59749    0.77893   1.00
H2       0.56872    0.51729    0.77408   1.00
H2       0.68667    0.53900    0.78800   1.00
H2       0.74847    0.62557    0.79070   1.00
H2       0.66606    0.59457    0.80048   1.00
H2       0.88682    0.78805    0.73204   1.00
H2       0.82145    0.80766    0.73290   1.00
H2       0.86773    0.81363    0.75521   1.00
H2       0.80759    0.62659    0.76042   1.00
H2       0.88279    0.69373    0.75049   1.00
H2       0.85055    0.70579    0.77351   1.00
H2       0.79140    0.76127    0.79370   1.00
H2       0.74133    0.79571    0.80261   1.00
H2       0.70747    0.70815    0.80296   1.00
H2       0.79769    0.85352    0.76821   1.00
H2       0.73742    0.82899    0.74878   1.00
H2       0.71891    0.84875    0.77271   1.00
H2       0.57740    0.68652    0.68966   1.00
H2       0.52374    0.62657    0.67167   1.00
H2       0.55530    0.60023    0.69192   1.00
H2       0.60213    0.71068    0.64605   1.00
H2       0.66412    0.76539    0.66338   1.00
H2       0.68655    0.72980    0.64303   1.00
H2       0.87618    0.71190    0.65996   1.00
H2       0.84968    0.71526    0.68475   1.00
H2       0.83066    0.63596    0.67411   1.00
H2       0.70548    0.62768    0.63457   1.00
H2       0.79346    0.66084    0.63133   1.00
H2       0.74542    0.58422    0.64494   1.00
H2       0.60348    0.55169    0.71250   1.00
H2       0.63595    0.49505    0.71264   1.00
H2       0.68873    0.58067    0.71930   1.00
H2       0.61192    0.45838    0.67744   1.00
H2       0.56664    0.50277    0.67521   1.00
H2       0.62987    0.51523    0.65724   1.00
C4       0.16936    0.35462    0.71750   1.00
C4       0.14214    0.29881    0.70354   1.00
C3       0.21452    0.36231    0.73353   1.00
C3       0.15237    0.24205    0.70534   1.00
C3       0.14985    0.40537    0.71565   1.00
C3       0.10254    0.29922    0.68676   1.00
C2       0.21948    0.46717    0.74570   1.00
C2       0.08410    0.18717    0.67495   1.00
C3       0.23861    0.41679    0.74732   1.00
C3       0.12470    0.18806    0.69134   1.00
C3       0.17573    0.46063    0.72948   1.00
C3       0.07270    0.24294    0.67332   1.00
H1       0.23142    0.32867    0.73563   1.00
H1       0.17986    0.23806    0.71695   1.00
C5       0.10487    0.40074    0.69994   1.00
C5       0.09237    0.35539    0.68355   1.00
H1       0.27077    0.41942    0.75871   1.00
H1       0.13427    0.14865    0.69330   1.00
H1       0.16280    0.49765    0.72763   1.00
H1       0.04092    0.24197    0.66214   1.00
O3       0.07733    0.44295    0.70022   1.00
O3       0.06618    0.36325    0.66546   1.00
Si1      0.00302    0.41691    0.71072   1.00
Si1      0.11806    0.40042    0.64650   1.00
C6       0.00396    0.49524    0.70940   1.00
C6       -0.05919   0.35576    0.69441   1.00
C6       -0.00127   0.39010    0.73610   1.00
C6       0.20517    0.42627    0.64977   1.00
C6       0.08346    0.33906    0.62716   1.00
C6       0.10923    0.47049    0.63925   1.00
C6       0.07124    0.55958    0.71675   1.00
H2       0.00184    0.50202    0.69307   1.00
C6       -0.05556   0.50315    0.71869   1.00
H2       -0.03337   0.37023    0.67976   1.00
C6       -0.08071   0.27908    0.69750   1.00
C6       -0.12762   0.35600    0.69137   1.00
H2       0.04550    0.43175    0.74257   1.00
C6       -0.06114   0.38435    0.74947   1.00
C6       -0.00017   0.32255    0.74072   1.00
C6       0.24464    0.47625    0.66757   1.00
C6       0.22800    0.37138    0.64970   1.00
H2       0.22801    0.45544    0.63596   1.00
H2       0.09361    0.29910    0.63221   1.00
C6       0.00428    0.30304    0.62433   1.00
C6       0.11549    0.36081    0.60553   1.00
H2       0.06340    0.44796    0.62985   1.00
C6       0.09442    0.50799    0.65662   1.00
C6       0.16697    0.52758    0.62601   1.00
H2       0.11576    0.56499    0.70865   1.00
H2       0.07948    0.55674    0.73297   1.00
H2       0.06965    0.60638    0.71399   1.00
H2       -0.06355   0.53903    0.70965   1.00
H2       -0.10372   0.45538    0.71921   1.00
H2       -0.04429   0.52356    0.73410   1.00
H2       -0.10766   0.24899    0.68414   1.00
H2       -0.03691   0.27217    0.69967   1.00
H2       -0.11482   0.25723    0.71048   1.00
H2       -0.11847   0.40564    0.68618   1.00
H2       -0.15943   0.31925    0.67977   1.00
H2       -0.15719   0.34256    0.70541   1.00
H2       -0.11041   0.35209    0.74221   1.00
H2       -0.06250   0.36292    0.76446   1.00
H2       -0.05535   0.43418    0.75241   1.00
H2       -0.05114   0.27774    0.74033   1.00
H2       0.03104    0.31304    0.73026   1.00
H2       0.02040    0.32495    0.75590   1.00
H2       0.23686    0.44929    0.68188   1.00
H2       0.29949    0.50345    0.66458   1.00
H2       0.22970    0.51468    0.66962   1.00
H2       0.28360    0.39582    0.64898   1.00
H2       0.21195    0.34005    0.66331   1.00
H2       0.20854    0.33778    0.63655   1.00
H2       -0.01355   0.25833    0.61453   1.00
H2       -0.02236   0.28492    0.63880   1.00
H2       -0.01147   0.33684    0.61748   1.00
H2       0.17094    0.38476    0.60594   1.00
H2       0.09684    0.31619    0.59564   1.00
H2       0.10207    0.39613    0.59845   1.00
H2       0.13589    0.53080    0.66761   1.00
H2       0.08569    0.54808    0.65073   1.00
H2       0.04848    0.47212    0.66467   1.00
H2       0.15084    0.56228    0.61997   1.00
H2       0.21337    0.55798    0.63485   1.00
H2       0.17976    0.50638    0.61301   1.00
C4       0.18534    0.83054    0.71743   1.00
C4       0.15668    0.85773    0.70349   1.00
C3       0.14715    0.78292    0.73289   1.00
C3       0.08864    0.84486    0.70477   1.00
C3       0.25634    0.85263    0.71620   1.00
C3       0.19776    0.90009    0.68727   1.00
C2       0.24776    0.78055    0.74568   1.00
C2       0.10298    0.91587    0.67497   1.00
C3       0.17753    0.75889    0.74670   1.00
C3       0.06229    0.87259    0.69079   1.00
C3       0.28576    0.82679    0.73003   1.00
C3       0.17114    0.92988    0.67387   1.00
H1       0.09609    0.76413    0.73452   1.00
H1       0.05635    0.81532    0.71596   1.00
C5       0.29743    0.90014    0.70109   1.00
C5       0.26531    0.91305    0.68458   1.00
H1       0.14745    0.72487    0.75765   1.00
H1       0.01254    0.86105    0.69236   1.00
H1       0.33635    0.84165    0.72861   1.00
H1       0.20253    0.96355    0.66313   1.00
O3       0.36736    0.92982    0.70203   1.00
O3       0.30100    0.94220    0.66692   1.00
Si1      0.41237    1.00322    0.71337   1.00
Si1      0.29025    0.89310    0.64751   1.00
C6       0.49141    1.00551    0.71257   1.00
C6       0.41279    1.06612    0.69752   1.00
C6       0.38637    1.00349    0.73861   1.00
C6       0.23096    0.80500    0.64975   1.00
C6       0.26377    0.92823    0.62825   1.00
C6       0.37111    0.90572    0.64086   1.00
C6       0.49030    0.93864    0.71941   1.00
H2       0.50225    1.00990    0.69632   1.00
C6       0.55667    1.06533    0.72272   1.00
H2       0.40393    1.04216    0.68262   1.00
C6       0.35537    1.08465    0.70038   1.00
C6       0.48035    1.13619    0.69543   1.00
H2       0.38231    0.95672    0.74471   1.00
C6       0.43760    1.06264    0.75275   1.00
C6       0.31595    0.99915    0.74275   1.00
C6       0.24124    0.76464    0.66733   1.00
C6       0.15270    0.77960    0.64899   1.00
H2       0.23989    0.78455    0.63583   1.00
H2       0.21255    0.91572    0.63288   1.00
C6       0.30489    1.00780    0.62627   1.00
C6       0.25705    0.89907    0.60634   1.00
H2       0.39407    0.95264    0.63194   1.00
C6       0.42185    0.92021    0.65867   1.00
C6       0.37427    0.85075    0.62721   1.00
H2       0.45315    0.89448    0.71074   1.00
H2       0.47749    0.92819    0.73549   1.00
H2       0.53985    0.94244    0.71699   1.00
H2       0.60207    1.07596    0.71403   1.00
H2       0.55508    1.11244    0.72358   1.00
H2       0.56470    1.05281    0.73810   1.00
H2       0.35260    1.11252    0.68721   1.00
H2       0.30522    1.03951    0.70190   1.00
H2       0.36503    1.11698    0.71368   1.00
H2       0.52257    1.12946    0.69045   1.00
H2       0.47536    1.16854    0.68402   1.00
H2       0.49402    1.16410    0.70977   1.00
H2       0.45376    1.11242    0.74596   1.00
H2       0.41539    1.06139    0.76760   1.00
H2       0.48237    1.05835    0.75595   1.00
H2       0.32021    1.04935    0.74277   1.00
H2       0.27690    0.96825    0.73181   1.00
H2       0.29654    0.97648    0.75766   1.00
H2       0.21976    0.76978    0.68155   1.00
H2       0.21561    0.71021    0.66377   1.00
H2       0.29479    0.78113    0.66984   1.00
H2       0.12326    0.72402    0.64767   1.00
H2       0.13493    0.79308    0.66261   1.00
H2       0.13900    0.79967    0.63590   1.00
H2       0.27790    1.02538    0.61642   1.00
H2       0.31087    1.03249    0.64097   1.00
H2       0.35553    1.02600    0.61987   1.00
H2       0.22713    0.84349    0.60615   1.00
H2       0.23095    0.91749    0.59641   1.00
H2       0.30697    0.91498    0.59968   1.00
H2       0.40326    0.87755    0.66923   1.00
H2       0.47191    0.93138    0.65317   1.00
H2       0.42935    0.96462    0.66710   1.00
H2       0.42610    0.86927    0.62163   1.00
H2       0.35883    0.80363    0.63561   1.00
H2       0.34161    0.83844    0.61390   1.00
