data_IRMOF10_interpen_symm_ligand1lp_symm_d

_audit_creation_method             'generated by an auxiliary program of Tobunporous'

_symmetry_space_group_name_H-M     'P 1'
_symmetry_Int_Tables_number        1
_symmetry_cell_setting             triclinic

_cell_length_a                    22.6523
_cell_length_b                    22.6523
_cell_length_c                    65.9502
_cell_angle_alpha                 90.0000
_cell_angle_beta                  90.0000
_cell_angle_gamma                 120.0000

loop_
_atom_site_label
_atom_site_fract_x
_atom_site_fract_y
_atom_site_fract_z
_atom_site_occupancy
O1       0.00000    -0.00000   0.62500   1.00
Zn      0.00000    -0.00000   0.59589   1.00
Zn      0.94848    1.04288    0.63392   1.00
Zn      0.09439    0.05152    0.63392   1.00
Zn      -0.04288   0.90561    0.63392   1.00
O2       0.93860    0.02610    0.58587   1.00
O2       0.08750    0.06140    0.58587   1.00
O2       -0.02610   0.91250    0.58587   1.00
O2       0.91305    0.07161    0.61181   1.00
O2       0.00462    0.12022    0.65110   1.00
O2       0.87413    0.98074    0.65071   1.00
O2       0.15856    0.08695    0.61181   1.00
O2       0.10660    0.12587    0.65071   1.00
O2       0.11559    0.99538    0.65110   1.00
O2       -0.07161   0.84144    0.61181   1.00
O2       0.87978    0.88441    0.65110   1.00
O2       0.01926    0.89340    0.65071   1.00
C1       0.91390    0.06020    0.59358   1.00
C1       0.14630    0.08610    0.59358   1.00
C1       -0.06020   0.85370    0.59358   1.00
C1       0.06663    0.14397    0.65673   1.00
C1       0.85603    0.92267    0.65673   1.00
C1       0.07733    0.93337    0.65673   1.00
O1       -0.00000   0.00000    0.87500   1.00
Zn      -0.00000   0.00000    0.90411   1.00
Zn      1.04288    0.94848    0.86608   1.00
Zn      0.05152    0.09439    0.86608   1.00
Zn      0.90561    -0.04288   0.86608   1.00
O2       0.02610    0.93860    0.91413   1.00
O2       0.06140    0.08750    0.91413   1.00
O2       0.91250    -0.02610   0.91413   1.00
O2       0.07161    0.91305    0.88819   1.00
O2       0.12022    0.00462    0.84890   1.00
O2       0.98074    0.87413    0.84929   1.00
O2       0.08695    0.15856    0.88819   1.00
O2       0.12587    0.10660    0.84929   1.00
O2       0.99538    0.11559    0.84890   1.00
O2       0.84144    -0.07161   0.88819   1.00
O2       0.88441    0.87978    0.84890   1.00
O2       0.89340    0.01926    0.84929   1.00
C1       0.06020    0.91390    0.90642   1.00
C1       0.08610    0.14630    0.90642   1.00
C1       0.85370    -0.06020   0.90642   1.00
C1       0.14397    0.06663    0.84327   1.00
C1       0.92267    0.85603    0.84327   1.00
C1       0.93337    0.07733    0.84327   1.00
O1       0.00000    0.00000    0.37500   1.00
Zn      0.00000    0.00000    0.40411   1.00
Zn      0.05152    -0.04288   0.36608   1.00
Zn      0.90561    0.94848    0.36608   1.00
Zn      1.04288    0.09439    0.36608   1.00
O2       0.06140    -0.02610   0.41413   1.00
O2       0.91250    0.93860    0.41413   1.00
O2       0.02610    0.08750    0.41413   1.00
O2       0.08695    -0.07161   0.38819   1.00
O2       0.99538    0.87978    0.34890   1.00
O2       0.12587    0.01926    0.34929   1.00
O2       0.84144    0.91305    0.38819   1.00
O2       0.89340    0.87413    0.34929   1.00
O2       0.88441    0.00462    0.34890   1.00
O2       0.07161    0.15856    0.38819   1.00
O2       0.12022    0.11559    0.34890   1.00
O2       0.98074    0.10660    0.34929   1.00
C1       0.08610    -0.06020   0.40642   1.00
C1       0.85370    0.91390    0.40642   1.00
C1       0.06020    0.14630    0.40642   1.00
C1       0.93337    0.85603    0.34327   1.00
C1       0.14397    0.07733    0.34327   1.00
C1       0.92267    0.06663    0.34327   1.00
O1       0.00000    0.00000    0.12500   1.00
Zn      0.00000    0.00000    0.09589   1.00
Zn      -0.04288   0.05152    0.13392   1.00
Zn      0.94848    0.90561    0.13392   1.00
Zn      0.09439    1.04288    0.13392   1.00
O2       -0.02610   0.06140    0.08587   1.00
O2       0.93860    0.91250    0.08587   1.00
O2       0.08750    0.02610    0.08587   1.00
O2       -0.07161   0.08695    0.11181   1.00
O2       0.87978    0.99538    0.15110   1.00
O2       0.01926    0.12587    0.15071   1.00
O2       0.91305    0.84144    0.11181   1.00
O2       0.87413    0.89340    0.15071   1.00
O2       0.00462    0.88441    0.15110   1.00
O2       0.15856    0.07161    0.11181   1.00
O2       0.11559    0.12022    0.15110   1.00
O2       0.10660    0.98074    0.15071   1.00
C1       -0.06020   0.08610    0.09358   1.00
C1       0.91390    0.85370    0.09358   1.00
C1       0.14630    0.06020    0.09358   1.00
C1       0.85603    0.93337    0.15673   1.00
C1       0.07733    0.14397    0.15673   1.00
C1       0.06663    0.92267    0.15673   1.00
O1       0.66667    0.33333    0.95833   1.00
Zn      0.66667    0.33333    0.92922   1.00
Zn      0.61515    0.37621    0.96725   1.00
Zn      0.76106    0.38485    0.96725   1.00
Zn      -0.37621   0.23894    0.96725   1.00
O2       0.60527    0.35943    0.91920   1.00
O2       0.75417    0.39473    0.91920   1.00
O2       0.64057    0.24583    0.91920   1.00
O2       0.57972    0.40494    0.94514   1.00
O2       0.67129    0.45355    0.98443   1.00
O2       0.54080    0.31407    0.98404   1.00
O2       0.82523    0.42028    0.94514   1.00
O2       0.77327    0.45920    0.98404   1.00
O2       -0.21774   0.32871    0.98443   1.00
O2       0.59506    0.17477    0.94514   1.00
O2       0.54645    0.21774    0.98443   1.00
O2       -0.31407   0.22673    0.98404   1.00
C1       0.58057    0.39353    0.92691   1.00
C1       0.81297    0.41943    0.92691   1.00
C1       0.60647    0.18703    0.92691   1.00
C1       0.73330    0.47730    0.99006   1.00
C1       0.52270    0.25600    0.99006   1.00
C1       -0.25600   0.26670    0.99006   1.00
O1       0.66667    0.33333    0.20833   1.00
Zn      0.66667    0.33333    0.23744   1.00
Zn      0.70954    0.28182    0.19942   1.00
Zn      0.71818    0.42773    0.19942   1.00
Zn      0.57227    0.29046    0.19942   1.00
O2       0.69277    0.27193    0.24746   1.00
O2       0.72807    0.42083    0.24746   1.00
O2       0.57917    0.30723    0.24746   1.00
O2       0.73828    0.24638    0.22152   1.00
O2       0.78688    0.33796    0.18224   1.00
O2       0.64740    0.20747    0.18263   1.00
O2       0.75362    0.49189    0.22152   1.00
O2       0.79253    0.43994    0.18263   1.00
O2       0.66204    0.44893    0.18224   1.00
O2       0.50811    0.26172    0.22152   1.00
O2       0.55107    0.21312    0.18224   1.00
O2       0.56006    0.35260    0.18263   1.00
C1       0.72687    0.24723    0.23975   1.00
C1       0.75277    0.47963    0.23975   1.00
C1       0.52037    0.27313    0.23975   1.00
C1       0.81063    0.39997    0.17661   1.00
C1       0.58933    0.18937    0.17661   1.00
C1       0.60003    0.41067    0.17661   1.00
O1       0.66667    0.33333    0.70833   1.00
Zn      0.66667    0.33333    0.73744   1.00
Zn      0.71818    0.29046    0.69942   1.00
Zn      0.57227    0.28182    0.69942   1.00
Zn      0.70954    0.42773    0.69942   1.00
O2       0.72807    0.30723    0.74746   1.00
O2       0.57917    0.27193    0.74746   1.00
O2       0.69277    0.42083    0.74746   1.00
O2       0.75362    0.26172    0.72152   1.00
O2       0.66204    0.21312    0.68224   1.00
O2       0.79253    0.35260    0.68263   1.00
O2       0.50811    0.24638    0.72152   1.00
O2       0.56006    0.20747    0.68263   1.00
O2       0.55107    0.33796    0.68224   1.00
O2       0.73828    0.49189    0.72152   1.00
O2       0.78688    0.44893    0.68224   1.00
O2       0.64740    0.43994    0.68263   1.00
C1       0.75277    0.27313    0.73975   1.00
C1       0.52037    0.24723    0.73975   1.00
C1       0.72687    0.47963    0.73975   1.00
C1       0.60003    0.18937    0.67661   1.00
C1       0.81063    0.41067    0.67661   1.00
C1       0.58933    0.39997    0.67661   1.00
O1       0.66667    0.33333    0.45833   1.00
Zn      0.66667    0.33333    0.42922   1.00
Zn      -0.37621   0.38485    0.46725   1.00
Zn      0.61515    0.23894    0.46725   1.00
Zn      0.76106    0.37621    0.46725   1.00
O2       0.64057    0.39473    0.41920   1.00
O2       0.60527    0.24583    0.41920   1.00
O2       0.75417    0.35943    0.41920   1.00
O2       0.59506    0.42028    0.44514   1.00
O2       0.54645    0.32871    0.48443   1.00
O2       -0.31407   0.45920    0.48404   1.00
O2       0.57972    0.17477    0.44514   1.00
O2       0.54080    0.22673    0.48404   1.00
O2       0.67129    0.21774    0.48443   1.00
O2       0.82523    0.40494    0.44514   1.00
O2       -0.21774   0.45355    0.48443   1.00
O2       0.77327    0.31407    0.48404   1.00
C1       0.60647    0.41943    0.42691   1.00
C1       0.58057    0.18703    0.42691   1.00
C1       0.81297    0.39353    0.42691   1.00
C1       0.52270    0.26670    0.49006   1.00
C1       -0.25600   0.47730    0.49006   1.00
C1       0.73330    0.25600    0.49006   1.00
O1       0.33333    0.66667    0.29167   1.00
Zn      0.33333    0.66667    0.26256   1.00
Zn      0.28182    0.70954    0.30058   1.00
Zn      0.42773    0.71818    0.30058   1.00
Zn      0.29046    0.57227    0.30058   1.00
O2       0.27193    0.69277    0.25254   1.00
O2       0.42083    0.72807    0.25254   1.00
O2       0.30723    0.57917    0.25254   1.00
O2       0.24638    0.73828    0.27848   1.00
O2       0.33796    0.78688    0.31776   1.00
O2       0.20747    0.64740    0.31737   1.00
O2       0.49189    0.75362    0.27848   1.00
O2       0.43994    0.79253    0.31737   1.00
O2       0.44893    0.66204    0.31776   1.00
O2       0.26172    0.50811    0.27848   1.00
O2       0.21312    0.55107    0.31776   1.00
O2       0.35260    0.56006    0.31737   1.00
C1       0.24723    0.72687    0.26025   1.00
C1       0.47963    0.75277    0.26025   1.00
C1       0.27313    0.52037    0.26025   1.00
C1       0.39997    0.81063    0.32339   1.00
C1       0.18937    0.58933    0.32339   1.00
C1       0.41067    0.60003    0.32339   1.00
O1       0.33333    0.66667    0.54167   1.00
Zn      0.33333    0.66667    0.57078   1.00
Zn      0.37621    0.61515    0.53275   1.00
Zn      0.38485    0.76106    0.53275   1.00
Zn      0.23894    -0.37621   0.53275   1.00
O2       0.35943    0.60527    0.58080   1.00
O2       0.39473    0.75417    0.58080   1.00
O2       0.24583    0.64057    0.58080   1.00
O2       0.40494    0.57972    0.55486   1.00
O2       0.45355    0.67129    0.51557   1.00
O2       0.31407    0.54080    0.51596   1.00
O2       0.42028    0.82523    0.55486   1.00
O2       0.45920    0.77327    0.51596   1.00
O2       0.32871    -0.21774   0.51557   1.00
O2       0.17477    0.59506    0.55486   1.00
O2       0.21774    0.54645    0.51557   1.00
O2       0.22673    -0.31407   0.51596   1.00
C1       0.39353    0.58057    0.57309   1.00
C1       0.41943    0.81297    0.57309   1.00
C1       0.18703    0.60647    0.57309   1.00
C1       0.47730    0.73330    0.50994   1.00
C1       0.25600    0.52270    0.50994   1.00
C1       0.26670    -0.25600   0.50994   1.00
O1       0.33333    0.66667    0.04167   1.00
Zn      0.33333    0.66667    0.07078   1.00
Zn      0.38485    -0.37621   0.03275   1.00
Zn      0.23894    0.61515    0.03275   1.00
Zn      0.37621    0.76106    0.03275   1.00
O2       0.39473    0.64057    0.08080   1.00
O2       0.24583    0.60527    0.08080   1.00
O2       0.35943    0.75417    0.08080   1.00
O2       0.42028    0.59506    0.05486   1.00
O2       0.32871    0.54645    0.01557   1.00
O2       0.45920    -0.31407   0.01596   1.00
O2       0.17477    0.57972    0.05486   1.00
O2       0.22673    0.54080    0.01596   1.00
O2       0.21774    0.67129    0.01557   1.00
O2       0.40494    0.82523    0.05486   1.00
O2       0.45355    -0.21774   0.01557   1.00
O2       0.31407    0.77327    0.01596   1.00
C1       0.41943    0.60647    0.07309   1.00
C1       0.18703    0.58057    0.07309   1.00
C1       0.39353    0.81297    0.07309   1.00
C1       0.26670    0.52270    0.00994   1.00
C1       0.47730    -0.25600   0.00994   1.00
C1       0.25600    0.73330    0.00994   1.00
O1       0.33333    0.66667    0.79167   1.00
Zn      0.33333    0.66667    0.76256   1.00
Zn      0.29046    0.71818    0.80058   1.00
Zn      0.28182    0.57227    0.80058   1.00
Zn      0.42773    0.70954    0.80058   1.00
O2       0.30723    0.72807    0.75254   1.00
O2       0.27193    0.57917    0.75254   1.00
O2       0.42083    0.69277    0.75254   1.00
O2       0.26172    0.75362    0.77848   1.00
O2       0.21312    0.66204    0.81776   1.00
O2       0.35260    0.79253    0.81737   1.00
O2       0.24638    0.50811    0.77848   1.00
O2       0.20747    0.56006    0.81737   1.00
O2       0.33796    0.55107    0.81776   1.00
O2       0.49189    0.73828    0.77848   1.00
O2       0.44893    0.78688    0.81776   1.00
O2       0.43994    0.64740    0.81737   1.00
C1       0.27313    0.75277    0.76025   1.00
C1       0.24723    0.52037    0.76025   1.00
C1       0.47963    0.72687    0.76025   1.00
C1       0.18937    0.60003    0.82339   1.00
C1       0.41067    0.81063    0.82339   1.00
C1       0.39997    0.58933    0.82339   1.00
C2       -0.22956   0.52095    0.51012   1.00
C3       -0.26449   0.52548    0.52565   1.00
H1       -0.30915   0.49064    0.52764   1.00
C3       -0.16393   0.57146    0.50774   1.00
H1       -0.13824   0.56880    0.49716   1.00
C4       -0.23710   0.57962    0.53890   1.00
C5       -0.27695   0.58468    0.55673   1.00
H2       -0.27238   0.56108    0.56819   1.00
H2       -0.32416   0.56440    0.55312   1.00
H2       -0.25944   0.63169    0.56015   1.00
C4       -0.13421   0.62669    0.52071   1.00
C5       -0.05850   0.68334    0.51819   1.00
H2       -0.05617   0.72015    0.51037   1.00
H2       -0.03379   0.66497    0.51139   1.00
H2       -0.03885   0.69992    0.53128   1.00
C6       -0.17043   0.63070    0.53676   1.00
C6       -0.13866   0.68921    0.55094   1.00
C4       -0.10778   0.68508    0.56858   1.00
C5       -0.09889   0.62540    0.57216   1.00
H2       -0.13726   0.59132    0.57960   1.00
H2       -0.05814   0.63927    0.57982   1.00
H2       -0.09556   0.60700    0.55934   1.00
C4       -0.14235   0.74701    0.54612   1.00
C5       -0.17679   0.75396    0.52702   1.00
H2       -0.14435   0.77105    0.51607   1.00
H2       -0.19311   0.78502    0.52957   1.00
H2       -0.21419   0.71020    0.52338   1.00
C3       -0.08140   0.73949    0.58198   1.00
H1       -0.05961   0.73736    0.59371   1.00
C3       -0.11537   0.80062    0.56102   1.00
H1       -0.11789   0.83964    0.55853   1.00
C2       -0.08630   0.79640    0.57845   1.00
C2       0.47905    0.24949    0.51012   1.00
C3       0.47452    0.21003    0.52565   1.00
H1       0.50936    0.20021    0.52764   1.00
C3       0.42854    0.26461    0.50774   1.00
H1       0.43120    0.29296    0.49716   1.00
C4       0.42038    0.18328    0.53890   1.00
C5       0.41532    0.13837    0.55673   1.00
H2       0.43892    0.16654    0.56819   1.00
H2       0.43560    0.11144    0.55312   1.00
H2       0.36831    0.10887    0.56015   1.00
C4       0.37331    0.23910    0.52071   1.00
C5       0.31666    0.25816    0.51819   1.00
H2       0.27985    0.22368    0.51037   1.00
H2       0.33503    0.30124    0.51139   1.00
H2       0.30008    0.26123    0.53128   1.00
C6       0.36930    0.19887    0.53676   1.00
C6       0.31079    0.17213    0.55094   1.00
C4       0.31492    0.20714    0.56858   1.00
C5       0.37460    0.27571    0.57216   1.00
H2       0.40868    0.27142    0.57960   1.00
H2       0.36073    0.30259    0.57982   1.00
H2       0.39300    0.29744    0.55934   1.00
C4       0.25299    0.11064    0.54612   1.00
C5       0.24604    0.06925    0.52702   1.00
H2       0.22895    0.08460    0.51607   1.00
H2       0.21498    0.02187    0.52957   1.00
H2       0.28980    0.07561    0.52338   1.00
C3       0.26051    0.17911    0.58198   1.00
H1       0.26264    0.20303    0.59371   1.00
C3       0.19938    0.08401    0.56102   1.00
H1       0.16036    0.04247    0.55853   1.00
C2       0.20360    0.11730    0.57845   1.00
C2       0.75051    0.22956    0.51012   1.00
C3       0.78997    0.26449    0.52565   1.00
H1       0.79979    0.30915    0.52764   1.00
C3       0.73539    0.16393    0.50774   1.00
H1       0.70704    0.13824    0.49716   1.00
C4       0.81672    0.23710    0.53890   1.00
C5       0.86163    0.27695    0.55673   1.00
H2       0.83346    0.27238    0.56819   1.00
H2       0.88856    0.32416    0.55312   1.00
H2       0.89113    0.25944    0.56015   1.00
C4       0.76090    0.13421    0.52071   1.00
C5       0.74184    0.05850    0.51819   1.00
H2       0.77632    0.05617    0.51037   1.00
H2       0.69876    0.03379    0.51139   1.00
H2       0.73877    0.03885    0.53128   1.00
C6       0.80113    0.17043    0.53676   1.00
C6       0.82787    0.13866    0.55094   1.00
C4       0.79286    0.10778    0.56858   1.00
C5       0.72429    0.09889    0.57216   1.00
H2       0.72858    0.13726    0.57960   1.00
H2       0.69741    0.05814    0.57982   1.00
H2       0.70256    0.09556    0.55934   1.00
C4       0.88936    0.14235    0.54612   1.00
C5       0.93075    0.17679    0.52702   1.00
H2       0.91540    0.14435    0.51607   1.00
H2       0.97813    0.19311    0.52957   1.00
H2       0.92439    0.21419    0.52338   1.00
C3       0.82089    0.08140    0.58198   1.00
H1       0.79697    0.05961    0.59371   1.00
C3       0.91599    0.11537    0.56102   1.00
H1       0.95753    0.11789    0.55853   1.00
C2       0.88270    0.08630    0.57845   1.00
C2       0.52095    -0.22956   0.98988   1.00
C3       0.52548    -0.26449   0.97435   1.00
H1       0.49064    -0.30915   0.97236   1.00
C3       0.57146    -0.16393   0.99226   1.00
H1       0.56880    -0.13824   0.00284   1.00
C4       0.57962    -0.23710   0.96110   1.00
C5       0.58468    -0.27695   0.94327   1.00
H2       0.56108    -0.27238   0.93181   1.00
H2       0.56440    -0.32416   0.94688   1.00
H2       0.63169    -0.25944   0.93985   1.00
C4       0.62669    -0.13421   0.97929   1.00
C5       0.68334    -0.05850   0.98181   1.00
H2       0.72015    -0.05617   0.98963   1.00
H2       0.66497    -0.03379   0.98861   1.00
H2       0.69992    -0.03885   0.96872   1.00
C6       0.63070    -0.17043   0.96324   1.00
C6       0.68921    -0.13866   0.94906   1.00
C4       0.68508    -0.10778   0.93142   1.00
C5       0.62540    -0.09889   0.92784   1.00
H2       0.59132    -0.13726   0.92040   1.00
H2       0.63927    -0.05814   0.92018   1.00
H2       0.60700    -0.09556   0.94066   1.00
C4       0.74701    -0.14235   0.95388   1.00
C5       0.75396    -0.17679   0.97298   1.00
H2       0.77105    -0.14435   0.98393   1.00
H2       0.78502    -0.19311   0.97043   1.00
H2       0.71020    -0.21419   0.97662   1.00
C3       0.73949    -0.08140   0.91802   1.00
H1       0.73736    -0.05961   0.90629   1.00
C3       0.80062    -0.11537   0.93898   1.00
H1       0.83964    -0.11789   0.94147   1.00
C2       0.79640    -0.08630   0.92155   1.00
C2       0.24949    0.47905    0.98988   1.00
C3       0.21003    0.47452    0.97435   1.00
H1       0.20021    0.50936    0.97236   1.00
C3       0.26461    0.42854    0.99226   1.00
H1       0.29296    0.43120    0.00284   1.00
C4       0.18328    0.42038    0.96110   1.00
C5       0.13837    0.41532    0.94327   1.00
H2       0.16654    0.43892    0.93181   1.00
H2       0.11144    0.43560    0.94688   1.00
H2       0.10887    0.36831    0.93985   1.00
C4       0.23910    0.37331    0.97929   1.00
C5       0.25816    0.31666    0.98181   1.00
H2       0.22368    0.27985    0.98963   1.00
H2       0.30124    0.33503    0.98861   1.00
H2       0.26123    0.30008    0.96872   1.00
C6       0.19887    0.36930    0.96324   1.00
C6       0.17213    0.31079    0.94906   1.00
C4       0.20714    0.31492    0.93142   1.00
C5       0.27571    0.37460    0.92784   1.00
H2       0.27142    0.40868    0.92040   1.00
H2       0.30259    0.36073    0.92018   1.00
H2       0.29744    0.39300    0.94066   1.00
C4       0.11064    0.25299    0.95388   1.00
C5       0.06925    0.24604    0.97298   1.00
H2       0.08460    0.22895    0.98393   1.00
H2       0.02187    0.21498    0.97043   1.00
H2       0.07561    0.28980    0.97662   1.00
C3       0.17911    0.26051    0.91802   1.00
H1       0.20303    0.26264    0.90629   1.00
C3       0.08401    0.19938    0.93898   1.00
H1       0.04247    0.16036    0.94147   1.00
C2       0.11730    0.20360    0.92155   1.00
C2       0.22956    0.75051    0.98988   1.00
C3       0.26449    0.78997    0.97435   1.00
H1       0.30915    0.79979    0.97236   1.00
C3       0.16393    0.73539    0.99226   1.00
H1       0.13824    0.70704    0.00284   1.00
C4       0.23710    0.81672    0.96110   1.00
C5       0.27695    0.86163    0.94327   1.00
H2       0.27238    0.83346    0.93181   1.00
H2       0.32416    0.88856    0.94688   1.00
H2       0.25944    0.89113    0.93985   1.00
C4       0.13421    0.76090    0.97929   1.00
C5       0.05850    0.74184    0.98181   1.00
H2       0.05617    0.77632    0.98963   1.00
H2       0.03379    0.69876    0.98861   1.00
H2       0.03885    0.73877    0.96872   1.00
C6       0.17043    0.80113    0.96324   1.00
C6       0.13866    0.82787    0.94906   1.00
C4       0.10778    0.79286    0.93142   1.00
C5       0.09889    0.72429    0.92784   1.00
H2       0.13726    0.72858    0.92040   1.00
H2       0.05814    0.69741    0.92018   1.00
H2       0.09556    0.70256    0.94066   1.00
C4       0.14235    0.88936    0.95388   1.00
C5       0.17679    0.93075    0.97298   1.00
H2       0.14435    0.91540    0.98393   1.00
H2       0.19311    0.97813    0.97043   1.00
H2       0.21419    0.92439    0.97662   1.00
C3       0.08140    0.82089    0.91802   1.00
H1       0.05961    0.79697    0.90629   1.00
C3       0.11537    0.91599    0.93898   1.00
H1       0.11789    0.95753    0.94147   1.00
C2       0.08630    0.88270    0.92155   1.00
C2       0.22956    0.47905    0.48988   1.00
C3       0.26449    0.47452    0.47435   1.00
H1       0.30915    0.50936    0.47236   1.00
C3       0.16393    0.42854    0.49226   1.00
H1       0.13824    0.43120    0.50284   1.00
C4       0.23710    0.42038    0.46110   1.00
C5       0.27695    0.41532    0.44327   1.00
H2       0.27238    0.43892    0.43181   1.00
H2       0.32416    0.43560    0.44688   1.00
H2       0.25944    0.36831    0.43985   1.00
C4       0.13421    0.37331    0.47929   1.00
C5       0.05850    0.31666    0.48181   1.00
H2       0.05617    0.27985    0.48963   1.00
H2       0.03379    0.33503    0.48861   1.00
H2       0.03885    0.30008    0.46872   1.00
C6       0.17043    0.36930    0.46324   1.00
C6       0.13866    0.31079    0.44906   1.00
C4       0.10778    0.31492    0.43142   1.00
C5       0.09889    0.37460    0.42784   1.00
H2       0.13726    0.40868    0.42040   1.00
H2       0.05814    0.36073    0.42018   1.00
H2       0.09556    0.39300    0.44066   1.00
C4       0.14235    0.25299    0.45388   1.00
C5       0.17679    0.24604    0.47298   1.00
H2       0.14435    0.22895    0.48393   1.00
H2       0.19311    0.21498    0.47043   1.00
H2       0.21419    0.28980    0.47662   1.00
C3       0.08140    0.26051    0.41802   1.00
H1       0.05961    0.26264    0.40629   1.00
C3       0.11537    0.19938    0.43898   1.00
H1       0.11789    0.16036    0.44147   1.00
C2       0.08630    0.20360    0.42155   1.00
C2       0.52095    0.75051    0.48988   1.00
C3       0.52548    0.78997    0.47435   1.00
H1       0.49064    0.79979    0.47236   1.00
C3       0.57146    0.73539    0.49226   1.00
H1       0.56880    0.70704    0.50284   1.00
C4       0.57962    0.81672    0.46110   1.00
C5       0.58468    0.86163    0.44327   1.00
H2       0.56108    0.83346    0.43181   1.00
H2       0.56440    0.88856    0.44688   1.00
H2       0.63169    0.89113    0.43985   1.00
C4       0.62669    0.76090    0.47929   1.00
C5       0.68334    0.74184    0.48181   1.00
H2       0.72015    0.77632    0.48963   1.00
H2       0.66497    0.69876    0.48861   1.00
H2       0.69992    0.73877    0.46872   1.00
C6       0.63070    0.80113    0.46324   1.00
C6       0.68921    0.82787    0.44906   1.00
C4       0.68508    0.79286    0.43142   1.00
C5       0.62540    0.72429    0.42784   1.00
H2       0.59132    0.72858    0.42040   1.00
H2       0.63927    0.69741    0.42018   1.00
H2       0.60700    0.70256    0.44066   1.00
C4       0.74701    0.88936    0.45388   1.00
C5       0.75396    0.93075    0.47298   1.00
H2       0.77105    0.91540    0.48393   1.00
H2       0.78502    0.97813    0.47043   1.00
H2       0.71020    0.92439    0.47662   1.00
C3       0.73949    0.82089    0.41802   1.00
H1       0.73736    0.79697    0.40629   1.00
C3       0.80062    0.91599    0.43898   1.00
H1       0.83964    0.95753    0.44147   1.00
C2       0.79640    0.88270    0.42155   1.00
C2       0.24949    -0.22956   0.48988   1.00
C3       0.21003    -0.26449   0.47435   1.00
H1       0.20021    -0.30915   0.47236   1.00
C3       0.26461    -0.16393   0.49226   1.00
H1       0.29296    -0.13824   0.50284   1.00
C4       0.18328    -0.23710   0.46110   1.00
C5       0.13837    -0.27695   0.44327   1.00
H2       0.16654    -0.27238   0.43181   1.00
H2       0.11144    -0.32416   0.44688   1.00
H2       0.10887    -0.25944   0.43985   1.00
C4       0.23910    -0.13421   0.47929   1.00
C5       0.25816    -0.05850   0.48181   1.00
H2       0.22368    -0.05617   0.48963   1.00
H2       0.30124    -0.03379   0.48861   1.00
H2       0.26123    -0.03885   0.46872   1.00
C6       0.19887    -0.17043   0.46324   1.00
C6       0.17213    -0.13866   0.44906   1.00
C4       0.20714    -0.10778   0.43142   1.00
C5       0.27571    -0.09889   0.42784   1.00
H2       0.27142    -0.13726   0.42040   1.00
H2       0.30259    -0.05814   0.42018   1.00
H2       0.29744    -0.09556   0.44066   1.00
C4       0.11064    -0.14235   0.45388   1.00
C5       0.06925    -0.17679   0.47298   1.00
H2       0.08460    -0.14435   0.48393   1.00
H2       0.02187    -0.19311   0.47043   1.00
H2       0.07561    -0.21419   0.47662   1.00
C3       0.17911    -0.08140   0.41802   1.00
H1       0.20303    -0.05961   0.40629   1.00
C3       0.08401    -0.11537   0.43898   1.00
H1       0.04247    -0.11789   0.44147   1.00
C2       0.11730    -0.08630   0.42155   1.00
C2       0.47905    0.22956    0.01012   1.00
C3       0.47452    0.26449    0.02565   1.00
H1       0.50936    0.30915    0.02764   1.00
C3       0.42854    0.16393    0.00774   1.00
H1       0.43120    0.13824    0.99716   1.00
C4       0.42038    0.23710    0.03890   1.00
C5       0.41532    0.27695    0.05673   1.00
H2       0.43892    0.27238    0.06819   1.00
H2       0.43560    0.32416    0.05312   1.00
H2       0.36831    0.25944    0.06015   1.00
C4       0.37331    0.13421    0.02071   1.00
C5       0.31666    0.05850    0.01819   1.00
H2       0.27985    0.05617    0.01037   1.00
H2       0.33503    0.03379    0.01139   1.00
H2       0.30008    0.03885    0.03128   1.00
C6       0.36930    0.17043    0.03676   1.00
C6       0.31079    0.13866    0.05094   1.00
C4       0.31492    0.10778    0.06858   1.00
C5       0.37460    0.09889    0.07216   1.00
H2       0.40868    0.13726    0.07960   1.00
H2       0.36073    0.05814    0.07982   1.00
H2       0.39300    0.09556    0.05934   1.00
C4       0.25299    0.14235    0.04612   1.00
C5       0.24604    0.17679    0.02702   1.00
H2       0.22895    0.14435    0.01607   1.00
H2       0.21498    0.19311    0.02957   1.00
H2       0.28980    0.21419    0.02338   1.00
C3       0.26051    0.08140    0.08198   1.00
H1       0.26264    0.05961    0.09371   1.00
C3       0.19938    0.11537    0.06102   1.00
H1       0.16036    0.11789    0.05853   1.00
C2       0.20360    0.08630    0.07845   1.00
C2       0.75051    0.52095    0.01012   1.00
C3       0.78997    0.52548    0.02565   1.00
H1       0.79979    0.49064    0.02764   1.00
C3       0.73539    0.57146    0.00774   1.00
H1       0.70704    0.56880    0.99716   1.00
C4       0.81672    0.57962    0.03890   1.00
C5       0.86163    0.58468    0.05673   1.00
H2       0.83346    0.56108    0.06819   1.00
H2       0.88856    0.56440    0.05312   1.00
H2       0.89113    0.63169    0.06015   1.00
C4       0.76090    0.62669    0.02071   1.00
C5       0.74184    0.68334    0.01819   1.00
H2       0.77632    0.72015    0.01037   1.00
H2       0.69876    0.66497    0.01139   1.00
H2       0.73877    0.69992    0.03128   1.00
C6       0.80113    0.63070    0.03676   1.00
C6       0.82787    0.68921    0.05094   1.00
C4       0.79286    0.68508    0.06858   1.00
C5       0.72429    0.62540    0.07216   1.00
H2       0.72858    0.59132    0.07960   1.00
H2       0.69741    0.63927    0.07982   1.00
H2       0.70256    0.60700    0.05934   1.00
C4       0.88936    0.74701    0.04612   1.00
C5       0.93075    0.75396    0.02702   1.00
H2       0.91540    0.77105    0.01607   1.00
H2       0.97813    0.78502    0.02957   1.00
H2       0.92439    0.71020    0.02338   1.00
C3       0.82089    0.73949    0.08198   1.00
H1       0.79697    0.73736    0.09371   1.00
C3       0.91599    0.80062    0.06102   1.00
H1       0.95753    0.83964    0.05853   1.00
C2       0.88270    0.79640    0.07845   1.00
C2       -0.22956   0.24949    0.01012   1.00
C3       -0.26449   0.21003    0.02565   1.00
H1       -0.30915   0.20021    0.02764   1.00
C3       -0.16393   0.26461    0.00774   1.00
H1       -0.13824   0.29296    0.99716   1.00
C4       -0.23710   0.18328    0.03890   1.00
C5       -0.27695   0.13837    0.05673   1.00
H2       -0.27238   0.16654    0.06819   1.00
H2       -0.32416   0.11144    0.05312   1.00
H2       -0.25944   0.10887    0.06015   1.00
C4       -0.13421   0.23910    0.02071   1.00
C5       -0.05850   0.25816    0.01819   1.00
H2       -0.05617   0.22368    0.01037   1.00
H2       -0.03379   0.30124    0.01139   1.00
H2       -0.03885   0.26123    0.03128   1.00
C6       -0.17043   0.19887    0.03676   1.00
C6       -0.13866   0.17213    0.05094   1.00
C4       -0.10778   0.20714    0.06858   1.00
C5       -0.09889   0.27571    0.07216   1.00
H2       -0.13726   0.27142    0.07960   1.00
H2       -0.05814   0.30259    0.07982   1.00
H2       -0.09556   0.29744    0.05934   1.00
C4       -0.14235   0.11064    0.04612   1.00
C5       -0.17679   0.06925    0.02702   1.00
H2       -0.14435   0.08460    0.01607   1.00
H2       -0.19311   0.02187    0.02957   1.00
H2       -0.21419   0.07561    0.02338   1.00
C3       -0.08140   0.17911    0.08198   1.00
H1       -0.05961   0.20303    0.09371   1.00
C3       -0.11537   0.08401    0.06102   1.00
H1       -0.11789   0.04247    0.05853   1.00
C2       -0.08630   0.11730    0.07845   1.00
C2       0.43711    0.85428    0.84345   1.00
C3       0.40218    0.85881    0.85898   1.00
H1       0.35752    0.82397    0.86097   1.00
C3       0.50274    0.90479    0.84107   1.00
H1       0.52843    0.90213    0.83049   1.00
C4       0.42957    0.91295    0.87223   1.00
C5       0.38972    0.91801    0.89006   1.00
H2       0.39429    0.89441    0.90152   1.00
H2       0.34251    0.89773    0.88645   1.00
H2       0.40723    0.96502    0.89348   1.00
C4       0.53246    0.96002    0.85404   1.00
C5       0.60817    0.01667    0.85152   1.00
H2       0.61050    0.05348    0.84370   1.00
H2       0.63288    0.99830    0.84472   1.00
H2       0.62782    0.03325    0.86461   1.00
C6       0.49624    0.96403    0.87009   1.00
C6       0.52801    0.02254    0.88427   1.00
C4       0.55889    0.01841    0.90191   1.00
C5       0.56778    0.95873    0.90549   1.00
H2       0.52941    0.92465    0.91293   1.00
H2       0.60853    0.97260    0.91315   1.00
H2       0.57111    0.94033    0.89267   1.00
C4       0.52432    0.08034    0.87945   1.00
C5       0.48988    0.08729    0.86035   1.00
H2       0.52232    0.10438    0.84940   1.00
H2       0.47356    0.11835    0.86290   1.00
H2       0.45248    0.04353    0.85671   1.00
C3       0.58527    0.07282    0.91531   1.00
H1       0.60706    0.07069    0.92704   1.00
C3       0.55130    0.13395    0.89435   1.00
H1       0.54878    0.17297    0.89186   1.00
C2       0.58037    0.12973    0.91178   1.00
C2       0.14572    0.58282    0.84345   1.00
C3       0.14119    0.54336    0.85898   1.00
H1       0.17603    0.53354    0.86097   1.00
C3       0.09521    0.59794    0.84107   1.00
H1       0.09787    0.62629    0.83049   1.00
C4       0.08705    0.51661    0.87223   1.00
C5       0.08199    0.47170    0.89006   1.00
H2       0.10559    0.49987    0.90152   1.00
H2       0.10227    0.44477    0.88645   1.00
H2       0.03498    0.44220    0.89348   1.00
C4       0.03998    0.57243    0.85404   1.00
C5       0.98333    0.59149    0.85152   1.00
H2       0.94652    0.55701    0.84370   1.00
H2       0.00170    0.63457    0.84472   1.00
H2       0.96675    0.59456    0.86461   1.00
C6       0.03597    0.53220    0.87009   1.00
C6       0.97746    0.50546    0.88427   1.00
C4       0.98159    0.54047    0.90191   1.00
C5       0.04127    0.60904    0.90549   1.00
H2       0.07535    0.60475    0.91293   1.00
H2       0.02740    0.63592    0.91315   1.00
H2       0.05967    0.63077    0.89267   1.00
C4       0.91966    0.44397    0.87945   1.00
C5       0.91271    0.40258    0.86035   1.00
H2       0.89562    0.41793    0.84940   1.00
H2       0.88165    0.35520    0.86290   1.00
H2       0.95647    0.40894    0.85671   1.00
C3       0.92718    0.51244    0.91531   1.00
H1       0.92931    0.53636    0.92704   1.00
C3       0.86605    0.41734    0.89435   1.00
H1       0.82703    0.37580    0.89186   1.00
C2       0.87027    0.45063    0.91178   1.00
C2       0.41718    0.56289    0.84345   1.00
C3       0.45664    0.59782    0.85898   1.00
H1       0.46646    0.64248    0.86097   1.00
C3       0.40206    0.49726    0.84107   1.00
H1       0.37371    0.47157    0.83049   1.00
C4       0.48339    0.57043    0.87223   1.00
C5       0.52830    0.61028    0.89006   1.00
H2       0.50013    0.60571    0.90152   1.00
H2       0.55523    0.65749    0.88645   1.00
H2       0.55780    0.59277    0.89348   1.00
C4       0.42757    0.46754    0.85404   1.00
C5       0.40851    0.39183    0.85152   1.00
H2       0.44299    0.38950    0.84370   1.00
H2       0.36543    0.36712    0.84472   1.00
H2       0.40544    0.37218    0.86461   1.00
C6       0.46780    0.50376    0.87009   1.00
C6       0.49454    0.47199    0.88427   1.00
C4       0.45953    0.44111    0.90191   1.00
C5       0.39096    0.43222    0.90549   1.00
H2       0.39525    0.47059    0.91293   1.00
H2       0.36408    0.39147    0.91315   1.00
H2       0.36923    0.42889    0.89267   1.00
C4       0.55603    0.47568    0.87945   1.00
C5       0.59742    0.51012    0.86035   1.00
H2       0.58207    0.47768    0.84940   1.00
H2       0.64480    0.52644    0.86290   1.00
H2       0.59106    0.54752    0.85671   1.00
C3       0.48756    0.41473    0.91531   1.00
H1       0.46364    0.39294    0.92704   1.00
C3       0.58266    0.44870    0.89435   1.00
H1       0.62420    0.45122    0.89186   1.00
C2       0.54937    0.41963    0.91178   1.00
C2       0.18762    0.10377    0.32321   1.00
C3       0.19215    0.06884    0.30768   1.00
H1       0.15731    0.02418    0.30569   1.00
C3       0.23813    0.16940    0.32559   1.00
H1       0.23547    0.19509    0.33617   1.00
C4       0.24629    0.09623    0.29443   1.00
C5       0.25135    0.05638    0.27660   1.00
H2       0.22775    0.06095    0.26514   1.00
H2       0.23107    0.00917    0.28021   1.00
H2       0.29836    0.07389    0.27318   1.00
C4       0.29336    0.19912    0.31262   1.00
C5       0.35001    0.27483    0.31514   1.00
H2       0.38682    0.27716    0.32296   1.00
H2       0.33164    0.29954    0.32194   1.00
H2       0.36659    0.29448    0.30205   1.00
C6       0.29737    0.16290    0.29657   1.00
C6       0.35588    0.19467    0.28239   1.00
C4       0.35175    0.22555    0.26475   1.00
C5       0.29207    0.23444    0.26117   1.00
H2       0.25799    0.19607    0.25373   1.00
H2       0.30594    0.27519    0.25351   1.00
H2       0.27367    0.23777    0.27399   1.00
C4       0.41368    0.19098    0.28721   1.00
C5       0.42063    0.15654    0.30631   1.00
H2       0.43772    0.18898    0.31726   1.00
H2       0.45169    0.14022    0.30376   1.00
H2       0.37687    0.11914    0.30995   1.00
C3       0.40616    0.25193    0.25135   1.00
H1       0.40403    0.27372    0.23962   1.00
C3       0.46729    0.21796    0.27231   1.00
H1       0.50631    0.21544    0.27480   1.00
C2       0.46307    0.24703    0.25488   1.00
C2       0.91616    0.81238    0.32321   1.00
C3       0.87670    0.80785    0.30768   1.00
H1       0.86688    0.84269    0.30569   1.00
C3       0.93128    0.76187    0.32559   1.00
H1       0.95963    0.76453    0.33617   1.00
C4       0.84995    0.75371    0.29443   1.00
C5       0.80504    0.74865    0.27660   1.00
H2       0.83321    0.77225    0.26514   1.00
H2       0.77811    0.76893    0.28021   1.00
H2       0.77554    0.70164    0.27318   1.00
C4       0.90577    0.70664    0.31262   1.00
C5       0.92483    0.64999    0.31514   1.00
H2       0.89035    0.61318    0.32296   1.00
H2       0.96791    0.66836    0.32194   1.00
H2       0.92790    0.63341    0.30205   1.00
C6       0.86554    0.70263    0.29657   1.00
C6       0.83880    0.64412    0.28239   1.00
C4       0.87381    0.64825    0.26475   1.00
C5       0.94238    0.70793    0.26117   1.00
H2       0.93809    0.74201    0.25373   1.00
H2       0.96926    0.69406    0.25351   1.00
H2       0.96411    0.72633    0.27399   1.00
C4       0.77731    0.58632    0.28721   1.00
C5       0.73592    0.57937    0.30631   1.00
H2       0.75127    0.56228    0.31726   1.00
H2       0.68854    0.54831    0.30376   1.00
H2       0.74228    0.62313    0.30995   1.00
C3       0.84578    0.59384    0.25135   1.00
H1       0.86970    0.59597    0.23962   1.00
C3       0.75068    0.53271    0.27231   1.00
H1       0.70914    0.49369    0.27480   1.00
C2       0.78397    0.53693    0.25488   1.00
C2       0.89623    0.08384    0.32321   1.00
C3       0.93116    0.12330    0.30768   1.00
H1       0.97582    0.13312    0.30569   1.00
C3       0.83060    0.06872    0.32559   1.00
H1       0.80491    0.04037    0.33617   1.00
C4       0.90377    0.15005    0.29443   1.00
C5       0.94362    0.19496    0.27660   1.00
H2       0.93905    0.16679    0.26514   1.00
H2       0.99083    0.22189    0.28021   1.00
H2       0.92611    0.22446    0.27318   1.00
C4       0.80088    0.09423    0.31262   1.00
C5       0.72517    0.07517    0.31514   1.00
H2       0.72284    0.10965    0.32296   1.00
H2       0.70046    0.03209    0.32194   1.00
H2       0.70552    0.07210    0.30205   1.00
C6       0.83710    0.13446    0.29657   1.00
C6       0.80533    0.16120    0.28239   1.00
C4       0.77445    0.12619    0.26475   1.00
C5       0.76556    0.05762    0.26117   1.00
H2       0.80393    0.06191    0.25373   1.00
H2       0.72481    0.03074    0.25351   1.00
H2       0.76223    0.03589    0.27399   1.00
C4       0.80902    0.22269    0.28721   1.00
C5       0.84346    0.26408    0.30631   1.00
H2       0.81102    0.24873    0.31726   1.00
H2       0.85978    0.31146    0.30376   1.00
H2       0.88086    0.25772    0.30995   1.00
C3       0.74807    0.15422    0.25135   1.00
H1       0.72628    0.13030    0.23962   1.00
C3       0.78204    0.24932    0.27231   1.00
H1       0.78456    0.29086    0.27480   1.00
C2       0.75297    0.21603    0.25488   1.00
C2       0.89623    0.81238    0.82321   1.00
C3       0.93116    0.80785    0.80768   1.00
H1       0.97582    0.84269    0.80569   1.00
C3       0.83060    0.76187    0.82559   1.00
H1       0.80491    0.76453    0.83617   1.00
C4       0.90377    0.75371    0.79443   1.00
C5       0.94362    0.74865    0.77660   1.00
H2       0.93905    0.77225    0.76514   1.00
H2       0.99083    0.76893    0.78021   1.00
H2       0.92611    0.70164    0.77318   1.00
C4       0.80088    0.70664    0.81262   1.00
C5       0.72517    0.64999    0.81514   1.00
H2       0.72284    0.61318    0.82296   1.00
H2       0.70046    0.66836    0.82194   1.00
H2       0.70552    0.63341    0.80205   1.00
C6       0.83710    0.70263    0.79657   1.00
C6       0.80533    0.64412    0.78239   1.00
C4       0.77445    0.64825    0.76475   1.00
C5       0.76556    0.70793    0.76117   1.00
H2       0.80393    0.74201    0.75373   1.00
H2       0.72481    0.69406    0.75351   1.00
H2       0.76223    0.72633    0.77399   1.00
C4       0.80902    0.58632    0.78721   1.00
C5       0.84346    0.57937    0.80631   1.00
H2       0.81102    0.56228    0.81726   1.00
H2       0.85978    0.54831    0.80376   1.00
H2       0.88086    0.62313    0.80995   1.00
C3       0.74807    0.59384    0.75135   1.00
H1       0.72628    0.59597    0.73962   1.00
C3       0.78204    0.53271    0.77231   1.00
H1       0.78456    0.49369    0.77480   1.00
C2       0.75297    0.53693    0.75488   1.00
C2       0.18762    0.08384    0.82321   1.00
C3       0.19215    0.12330    0.80768   1.00
H1       0.15731    0.13312    0.80569   1.00
C3       0.23813    0.06872    0.82559   1.00
H1       0.23547    0.04037    0.83617   1.00
C4       0.24629    0.15005    0.79443   1.00
C5       0.25135    0.19496    0.77660   1.00
H2       0.22775    0.16679    0.76514   1.00
H2       0.23107    0.22189    0.78021   1.00
H2       0.29836    0.22446    0.77318   1.00
C4       0.29336    0.09423    0.81262   1.00
C5       0.35001    0.07517    0.81514   1.00
H2       0.38682    0.10965    0.82296   1.00
H2       0.33164    0.03209    0.82194   1.00
H2       0.36659    0.07210    0.80205   1.00
C6       0.29737    0.13446    0.79657   1.00
C6       0.35588    0.16120    0.78239   1.00
C4       0.35175    0.12619    0.76475   1.00
C5       0.29207    0.05762    0.76117   1.00
H2       0.25799    0.06191    0.75373   1.00
H2       0.30594    0.03074    0.75351   1.00
H2       0.27367    0.03589    0.77399   1.00
C4       0.41368    0.22269    0.78721   1.00
C5       0.42063    0.26408    0.80631   1.00
H2       0.43772    0.24873    0.81726   1.00
H2       0.45169    0.31146    0.80376   1.00
H2       0.37687    0.25772    0.80995   1.00
C3       0.40616    0.15422    0.75135   1.00
H1       0.40403    0.13030    0.73962   1.00
C3       0.46729    0.24932    0.77231   1.00
H1       0.50631    0.29086    0.77480   1.00
C2       0.46307    0.21603    0.75488   1.00
C2       0.91616    0.10377    0.82321   1.00
C3       0.87670    0.06884    0.80768   1.00
H1       0.86688    0.02418    0.80569   1.00
C3       0.93128    0.16940    0.82559   1.00
H1       0.95963    0.19509    0.83617   1.00
C4       0.84995    0.09623    0.79443   1.00
C5       0.80504    0.05638    0.77660   1.00
H2       0.83321    0.06095    0.76514   1.00
H2       0.77811    0.00917    0.78021   1.00
H2       0.77554    0.07389    0.77318   1.00
C4       0.90577    0.19912    0.81262   1.00
C5       0.92483    0.27483    0.81514   1.00
H2       0.89035    0.27716    0.82296   1.00
H2       0.96791    0.29954    0.82194   1.00
H2       0.92790    0.29448    0.80205   1.00
C6       0.86554    0.16290    0.79657   1.00
C6       0.83880    0.19467    0.78239   1.00
C4       0.87381    0.22555    0.76475   1.00
C5       0.94238    0.23444    0.76117   1.00
H2       0.93809    0.19607    0.75373   1.00
H2       0.96926    0.27519    0.75351   1.00
H2       0.96411    0.23777    0.77399   1.00
C4       0.77731    0.19098    0.78721   1.00
C5       0.73592    0.15654    0.80631   1.00
H2       0.75127    0.18898    0.81726   1.00
H2       0.68854    0.14022    0.80376   1.00
H2       0.74228    0.11914    0.80995   1.00
C3       0.84578    0.25193    0.75135   1.00
H1       0.86970    0.27372    0.73962   1.00
C3       0.75068    0.21796    0.77231   1.00
H1       0.70914    0.21544    0.77480   1.00
C2       0.78397    0.24703    0.75488   1.00
C2       0.14572    0.56289    0.34345   1.00
C3       0.14119    0.59782    0.35898   1.00
H1       0.17603    0.64248    0.36097   1.00
C3       0.09521    0.49726    0.34107   1.00
H1       0.09787    0.47157    0.33049   1.00
C4       0.08705    0.57043    0.37223   1.00
C5       0.08199    0.61028    0.39006   1.00
H2       0.10559    0.60571    0.40152   1.00
H2       0.10227    0.65749    0.38645   1.00
H2       0.03498    0.59277    0.39348   1.00
C4       0.03998    0.46754    0.35404   1.00
C5       0.98333    0.39183    0.35152   1.00
H2       0.94652    0.38950    0.34370   1.00
H2       0.00170    0.36712    0.34472   1.00
H2       0.96675    0.37218    0.36461   1.00
C6       0.03597    0.50376    0.37009   1.00
C6       0.97746    0.47199    0.38427   1.00
C4       0.98159    0.44111    0.40191   1.00
C5       0.04127    0.43222    0.40549   1.00
H2       0.07535    0.47059    0.41293   1.00
H2       0.02740    0.39147    0.41315   1.00
H2       0.05967    0.42889    0.39267   1.00
C4       0.91966    0.47568    0.37945   1.00
C5       0.91271    0.51012    0.36035   1.00
H2       0.89562    0.47768    0.34940   1.00
H2       0.88165    0.52644    0.36290   1.00
H2       0.95647    0.54752    0.35671   1.00
C3       0.92718    0.41473    0.41531   1.00
H1       0.92931    0.39294    0.42704   1.00
C3       0.86605    0.44870    0.39435   1.00
H1       0.82703    0.45122    0.39186   1.00
C2       0.87027    0.41963    0.41178   1.00
C2       0.41718    0.85428    0.34345   1.00
C3       0.45664    0.85881    0.35898   1.00
H1       0.46646    0.82397    0.36097   1.00
C3       0.40206    0.90479    0.34107   1.00
H1       0.37371    0.90213    0.33049   1.00
C4       0.48339    0.91295    0.37223   1.00
C5       0.52830    0.91801    0.39006   1.00
H2       0.50013    0.89441    0.40152   1.00
H2       0.55523    0.89773    0.38645   1.00
H2       0.55780    0.96502    0.39348   1.00
C4       0.42757    0.96002    0.35404   1.00
C5       0.40851    0.01667    0.35152   1.00
H2       0.44299    0.05348    0.34370   1.00
H2       0.36543    0.99830    0.34472   1.00
H2       0.40544    0.03325    0.36461   1.00
C6       0.46780    0.96403    0.37009   1.00
C6       0.49454    0.02254    0.38427   1.00
C4       0.45953    0.01841    0.40191   1.00
C5       0.39096    0.95873    0.40549   1.00
H2       0.39525    0.92465    0.41293   1.00
H2       0.36408    0.97260    0.41315   1.00
H2       0.36923    0.94033    0.39267   1.00
C4       0.55603    0.08034    0.37945   1.00
C5       0.59742    0.08729    0.36035   1.00
H2       0.58207    0.10438    0.34940   1.00
H2       0.64480    0.11835    0.36290   1.00
H2       0.59106    0.04353    0.35671   1.00
C3       0.48756    0.07282    0.41531   1.00
H1       0.46364    0.07069    0.42704   1.00
C3       0.58266    0.13395    0.39435   1.00
H1       0.62420    0.17297    0.39186   1.00
C2       0.54937    0.12973    0.41178   1.00
C2       0.43711    0.58282    0.34345   1.00
C3       0.40218    0.54336    0.35898   1.00
H1       0.35752    0.53354    0.36097   1.00
C3       0.50274    0.59794    0.34107   1.00
H1       0.52843    0.62629    0.33049   1.00
C4       0.42957    0.51661    0.37223   1.00
C5       0.38972    0.47170    0.39006   1.00
H2       0.39429    0.49987    0.40152   1.00
H2       0.34251    0.44477    0.38645   1.00
H2       0.40723    0.44220    0.39348   1.00
C4       0.53246    0.57243    0.35404   1.00
C5       0.60817    0.59149    0.35152   1.00
H2       0.61050    0.55701    0.34370   1.00
H2       0.63288    0.63457    0.34472   1.00
H2       0.62782    0.59456    0.36461   1.00
C6       0.49624    0.53220    0.37009   1.00
C6       0.52801    0.50546    0.38427   1.00
C4       0.55889    0.54047    0.40191   1.00
C5       0.56778    0.60904    0.40549   1.00
H2       0.52941    0.60475    0.41293   1.00
H2       0.60853    0.63592    0.41315   1.00
H2       0.57111    0.63077    0.39267   1.00
C4       0.52432    0.44397    0.37945   1.00
C5       0.48988    0.40258    0.36035   1.00
H2       0.52232    0.41793    0.34940   1.00
H2       0.47356    0.35520    0.36290   1.00
H2       0.45248    0.40894    0.35671   1.00
C3       0.58527    0.51244    0.41531   1.00
H1       0.60706    0.53636    0.42704   1.00
C3       0.55130    0.41734    0.39435   1.00
H1       0.54878    0.37580    0.39186   1.00
C2       0.58037    0.45063    0.41178   1.00
C2       0.10377    0.18762    0.17679   1.00
C3       0.06884    0.19215    0.19232   1.00
H1       0.02418    0.15731    0.19431   1.00
C3       0.16940    0.23813    0.17441   1.00
H1       0.19509    0.23547    0.16383   1.00
C4       0.09623    0.24629    0.20557   1.00
C5       0.05638    0.25135    0.22340   1.00
H2       0.06095    0.22775    0.23486   1.00
H2       0.00917    0.23107    0.21979   1.00
H2       0.07389    0.29836    0.22682   1.00
C4       0.19912    0.29336    0.18738   1.00
C5       0.27483    0.35001    0.18486   1.00
H2       0.27716    0.38682    0.17704   1.00
H2       0.29954    0.33164    0.17806   1.00
H2       0.29448    0.36659    0.19795   1.00
C6       0.16290    0.29737    0.20343   1.00
C6       0.19467    0.35588    0.21761   1.00
C4       0.22555    0.35175    0.23525   1.00
C5       0.23444    0.29207    0.23883   1.00
H2       0.19607    0.25799    0.24627   1.00
H2       0.27519    0.30594    0.24649   1.00
H2       0.23777    0.27367    0.22601   1.00
C4       0.19098    0.41368    0.21279   1.00
C5       0.15654    0.42063    0.19369   1.00
H2       0.18898    0.43772    0.18274   1.00
H2       0.14022    0.45169    0.19624   1.00
H2       0.11914    0.37687    0.19005   1.00
C3       0.25193    0.40616    0.24865   1.00
H1       0.27372    0.40403    0.26038   1.00
C3       0.21796    0.46729    0.22769   1.00
H1       0.21544    0.50631    0.22520   1.00
C2       0.24703    0.46307    0.24512   1.00
C2       0.81238    0.91616    0.17679   1.00
C3       0.80785    0.87670    0.19232   1.00
H1       0.84269    0.86688    0.19431   1.00
C3       0.76187    0.93128    0.17441   1.00
H1       0.76453    0.95963    0.16383   1.00
C4       0.75371    0.84995    0.20557   1.00
C5       0.74865    0.80504    0.22340   1.00
H2       0.77225    0.83321    0.23486   1.00
H2       0.76893    0.77811    0.21979   1.00
H2       0.70164    0.77554    0.22682   1.00
C4       0.70664    0.90577    0.18738   1.00
C5       0.64999    0.92483    0.18486   1.00
H2       0.61318    0.89035    0.17704   1.00
H2       0.66836    0.96791    0.17806   1.00
H2       0.63341    0.92790    0.19795   1.00
C6       0.70263    0.86554    0.20343   1.00
C6       0.64412    0.83880    0.21761   1.00
C4       0.64825    0.87381    0.23525   1.00
C5       0.70793    0.94238    0.23883   1.00
H2       0.74201    0.93809    0.24627   1.00
H2       0.69406    0.96926    0.24649   1.00
H2       0.72633    0.96411    0.22601   1.00
C4       0.58632    0.77731    0.21279   1.00
C5       0.57937    0.73592    0.19369   1.00
H2       0.56228    0.75127    0.18274   1.00
H2       0.54831    0.68854    0.19624   1.00
H2       0.62313    0.74228    0.19005   1.00
C3       0.59384    0.84578    0.24865   1.00
H1       0.59597    0.86970    0.26038   1.00
C3       0.53271    0.75068    0.22769   1.00
H1       0.49369    0.70914    0.22520   1.00
C2       0.53693    0.78397    0.24512   1.00
C2       0.08384    0.89623    0.17679   1.00
C3       0.12330    0.93116    0.19232   1.00
H1       0.13312    0.97582    0.19431   1.00
C3       0.06872    0.83060    0.17441   1.00
H1       0.04037    0.80491    0.16383   1.00
C4       0.15005    0.90377    0.20557   1.00
C5       0.19496    0.94362    0.22340   1.00
H2       0.16679    0.93905    0.23486   1.00
H2       0.22189    0.99083    0.21979   1.00
H2       0.22446    0.92611    0.22682   1.00
C4       0.09423    0.80088    0.18738   1.00
C5       0.07517    0.72517    0.18486   1.00
H2       0.10965    0.72284    0.17704   1.00
H2       0.03209    0.70046    0.17806   1.00
H2       0.07210    0.70552    0.19795   1.00
C6       0.13446    0.83710    0.20343   1.00
C6       0.16120    0.80533    0.21761   1.00
C4       0.12619    0.77445    0.23525   1.00
C5       0.05762    0.76556    0.23883   1.00
H2       0.06191    0.80393    0.24627   1.00
H2       0.03074    0.72481    0.24649   1.00
H2       0.03589    0.76223    0.22601   1.00
C4       0.22269    0.80902    0.21279   1.00
C5       0.26408    0.84346    0.19369   1.00
H2       0.24873    0.81102    0.18274   1.00
H2       0.31146    0.85978    0.19624   1.00
H2       0.25772    0.88086    0.19005   1.00
C3       0.15422    0.74807    0.24865   1.00
H1       0.13030    0.72628    0.26038   1.00
C3       0.24932    0.78204    0.22769   1.00
H1       0.29086    0.78456    0.22520   1.00
C2       0.21603    0.75297    0.24512   1.00
C2       0.85428    0.43711    0.65655   1.00
C3       0.85881    0.40218    0.64102   1.00
H1       0.82397    0.35752    0.63903   1.00
C3       0.90479    0.50274    0.65893   1.00
H1       0.90213    0.52843    0.66951   1.00
C4       0.91295    0.42957    0.62777   1.00
C5       0.91801    0.38972    0.60994   1.00
H2       0.89441    0.39429    0.59848   1.00
H2       0.89773    0.34251    0.61355   1.00
H2       0.96502    0.40723    0.60652   1.00
C4       0.96002    0.53246    0.64596   1.00
C5       0.01667    0.60817    0.64848   1.00
H2       0.05348    0.61050    0.65630   1.00
H2       0.99830    0.63288    0.65528   1.00
H2       0.03325    0.62782    0.63539   1.00
C6       0.96403    0.49624    0.62991   1.00
C6       0.02254    0.52801    0.61573   1.00
C4       0.01841    0.55889    0.59809   1.00
C5       0.95873    0.56778    0.59451   1.00
H2       0.92465    0.52941    0.58707   1.00
H2       0.97260    0.60853    0.58685   1.00
H2       0.94033    0.57111    0.60733   1.00
C4       0.08034    0.52432    0.62055   1.00
C5       0.08729    0.48988    0.63965   1.00
H2       0.10438    0.52232    0.65060   1.00
H2       0.11835    0.47356    0.63710   1.00
H2       0.04353    0.45248    0.64329   1.00
C3       0.07282    0.58527    0.58469   1.00
H1       0.07069    0.60706    0.57296   1.00
C3       0.13395    0.55130    0.60565   1.00
H1       0.17297    0.54878    0.60814   1.00
C2       0.12973    0.58037    0.58822   1.00
C2       0.58282    0.14572    0.65655   1.00
C3       0.54336    0.14119    0.64102   1.00
H1       0.53354    0.17603    0.63903   1.00
C3       0.59794    0.09521    0.65893   1.00
H1       0.62629    0.09787    0.66951   1.00
C4       0.51661    0.08705    0.62777   1.00
C5       0.47170    0.08199    0.60994   1.00
H2       0.49987    0.10559    0.59848   1.00
H2       0.44477    0.10227    0.61355   1.00
H2       0.44220    0.03498    0.60652   1.00
C4       0.57243    0.03998    0.64596   1.00
C5       0.59149    0.98333    0.64848   1.00
H2       0.55701    0.94652    0.65630   1.00
H2       0.63457    0.00170    0.65528   1.00
H2       0.59456    0.96675    0.63539   1.00
C6       0.53220    0.03597    0.62991   1.00
C6       0.50546    0.97746    0.61573   1.00
C4       0.54047    0.98159    0.59809   1.00
C5       0.60904    0.04127    0.59451   1.00
H2       0.60475    0.07535    0.58707   1.00
H2       0.63592    0.02740    0.58685   1.00
H2       0.63077    0.05967    0.60733   1.00
C4       0.44397    0.91966    0.62055   1.00
C5       0.40258    0.91271    0.63965   1.00
H2       0.41793    0.89562    0.65060   1.00
H2       0.35520    0.88165    0.63710   1.00
H2       0.40894    0.95647    0.64329   1.00
C3       0.51244    0.92718    0.58469   1.00
H1       0.53636    0.92931    0.57296   1.00
C3       0.41734    0.86605    0.60565   1.00
H1       0.37580    0.82703    0.60814   1.00
C2       0.45063    0.87027    0.58822   1.00
C2       0.56289    0.41718    0.65655   1.00
C3       0.59782    0.45664    0.64102   1.00
H1       0.64248    0.46646    0.63903   1.00
C3       0.49726    0.40206    0.65893   1.00
H1       0.47157    0.37371    0.66951   1.00
C4       0.57043    0.48339    0.62777   1.00
C5       0.61028    0.52830    0.60994   1.00
H2       0.60571    0.50013    0.59848   1.00
H2       0.65749    0.55523    0.61355   1.00
H2       0.59277    0.55780    0.60652   1.00
C4       0.46754    0.42757    0.64596   1.00
C5       0.39183    0.40851    0.64848   1.00
H2       0.38950    0.44299    0.65630   1.00
H2       0.36712    0.36543    0.65528   1.00
H2       0.37218    0.40544    0.63539   1.00
C6       0.50376    0.46780    0.62991   1.00
C6       0.47199    0.49454    0.61573   1.00
C4       0.44111    0.45953    0.59809   1.00
C5       0.43222    0.39096    0.59451   1.00
H2       0.47059    0.39525    0.58707   1.00
H2       0.39147    0.36408    0.58685   1.00
H2       0.42889    0.36923    0.60733   1.00
C4       0.47568    0.55603    0.62055   1.00
C5       0.51012    0.59742    0.63965   1.00
H2       0.47768    0.58207    0.65060   1.00
H2       0.52644    0.64480    0.63710   1.00
H2       0.54752    0.59106    0.64329   1.00
C3       0.41473    0.48756    0.58469   1.00
H1       0.39294    0.46364    0.57296   1.00
C3       0.44870    0.58266    0.60565   1.00
H1       0.45122    0.62420    0.60814   1.00
C2       0.41963    0.54937    0.58822   1.00
C2       0.56289    0.14572    0.15655   1.00
C3       0.59782    0.14119    0.14102   1.00
H1       0.64248    0.17603    0.13903   1.00
C3       0.49726    0.09521    0.15893   1.00
H1       0.47157    0.09787    0.16951   1.00
C4       0.57043    0.08705    0.12777   1.00
C5       0.61028    0.08199    0.10994   1.00
H2       0.60571    0.10559    0.09848   1.00
H2       0.65749    0.10227    0.11355   1.00
H2       0.59277    0.03498    0.10652   1.00
C4       0.46754    0.03998    0.14596   1.00
C5       0.39183    0.98333    0.14848   1.00
H2       0.38950    0.94652    0.15630   1.00
H2       0.36712    0.00170    0.15528   1.00
H2       0.37218    0.96675    0.13539   1.00
C6       0.50376    0.03597    0.12991   1.00
C6       0.47199    0.97746    0.11573   1.00
C4       0.44111    0.98159    0.09809   1.00
C5       0.43222    0.04127    0.09451   1.00
H2       0.47059    0.07535    0.08707   1.00
H2       0.39147    0.02740    0.08685   1.00
H2       0.42889    0.05967    0.10733   1.00
C4       0.47568    0.91966    0.12055   1.00
C5       0.51012    0.91271    0.13965   1.00
H2       0.47768    0.89562    0.15060   1.00
H2       0.52644    0.88165    0.13710   1.00
H2       0.54752    0.95647    0.14329   1.00
C3       0.41473    0.92718    0.08469   1.00
H1       0.39294    0.92931    0.07296   1.00
C3       0.44870    0.86605    0.10565   1.00
H1       0.45122    0.82703    0.10814   1.00
C2       0.41963    0.87027    0.08822   1.00
C2       0.85428    0.41718    0.15655   1.00
C3       0.85881    0.45664    0.14102   1.00
H1       0.82397    0.46646    0.13903   1.00
C3       0.90479    0.40206    0.15893   1.00
H1       0.90213    0.37371    0.16951   1.00
C4       0.91295    0.48339    0.12777   1.00
C5       0.91801    0.52830    0.10994   1.00
H2       0.89441    0.50013    0.09848   1.00
H2       0.89773    0.55523    0.11355   1.00
H2       0.96502    0.55780    0.10652   1.00
C4       0.96002    0.42757    0.14596   1.00
C5       0.01667    0.40851    0.14848   1.00
H2       0.05348    0.44299    0.15630   1.00
H2       0.99830    0.36543    0.15528   1.00
H2       0.03325    0.40544    0.13539   1.00
C6       0.96403    0.46780    0.12991   1.00
C6       0.02254    0.49454    0.11573   1.00
C4       0.01841    0.45953    0.09809   1.00
C5       0.95873    0.39096    0.09451   1.00
H2       0.92465    0.39525    0.08707   1.00
H2       0.97260    0.36408    0.08685   1.00
H2       0.94033    0.36923    0.10733   1.00
C4       0.08034    0.55603    0.12055   1.00
C5       0.08729    0.59742    0.13965   1.00
H2       0.10438    0.58207    0.15060   1.00
H2       0.11835    0.64480    0.13710   1.00
H2       0.04353    0.59106    0.14329   1.00
C3       0.07282    0.48756    0.08469   1.00
H1       0.07069    0.46364    0.07296   1.00
C3       0.13395    0.58266    0.10565   1.00
H1       0.17297    0.62420    0.10814   1.00
C2       0.12973    0.54937    0.08822   1.00
C2       0.58282    0.43711    0.15655   1.00
C3       0.54336    0.40218    0.14102   1.00
H1       0.53354    0.35752    0.13903   1.00
C3       0.59794    0.50274    0.15893   1.00
H1       0.62629    0.52843    0.16951   1.00
C4       0.51661    0.42957    0.12777   1.00
C5       0.47170    0.38972    0.10994   1.00
H2       0.49987    0.39429    0.09848   1.00
H2       0.44477    0.34251    0.11355   1.00
H2       0.44220    0.40723    0.10652   1.00
C4       0.57243    0.53246    0.14596   1.00
C5       0.59149    0.60817    0.14848   1.00
H2       0.55701    0.61050    0.15630   1.00
H2       0.63457    0.63288    0.15528   1.00
H2       0.59456    0.62782    0.13539   1.00
C6       0.53220    0.49624    0.12991   1.00
C6       0.50546    0.52801    0.11573   1.00
C4       0.54047    0.55889    0.09809   1.00
C5       0.60904    0.56778    0.09451   1.00
H2       0.60475    0.52941    0.08707   1.00
H2       0.63592    0.60853    0.08685   1.00
H2       0.63077    0.57111    0.10733   1.00
C4       0.44397    0.52432    0.12055   1.00
C5       0.40258    0.48988    0.13965   1.00
H2       0.41793    0.52232    0.15060   1.00
H2       0.35520    0.47356    0.13710   1.00
H2       0.40894    0.45248    0.14329   1.00
C3       0.51244    0.58527    0.08469   1.00
H1       0.53636    0.60706    0.07296   1.00
C3       0.41734    0.55130    0.10565   1.00
H1       0.37580    0.54878    0.10814   1.00
C2       0.45063    0.58037    0.08822   1.00
C2       0.81238    0.89623    0.67679   1.00
C3       0.80785    0.93116    0.69232   1.00
H1       0.84269    0.97582    0.69431   1.00
C3       0.76187    0.83060    0.67441   1.00
H1       0.76453    0.80491    0.66383   1.00
C4       0.75371    0.90377    0.70557   1.00
C5       0.74865    0.94362    0.72340   1.00
H2       0.77225    0.93905    0.73486   1.00
H2       0.76893    0.99083    0.71979   1.00
H2       0.70164    0.92611    0.72682   1.00
C4       0.70664    0.80088    0.68738   1.00
C5       0.64999    0.72517    0.68486   1.00
H2       0.61318    0.72284    0.67704   1.00
H2       0.66836    0.70046    0.67806   1.00
H2       0.63341    0.70552    0.69795   1.00
C6       0.70263    0.83710    0.70343   1.00
C6       0.64412    0.80533    0.71761   1.00
C4       0.64825    0.77445    0.73525   1.00
C5       0.70793    0.76556    0.73883   1.00
H2       0.74201    0.80393    0.74627   1.00
H2       0.69406    0.72481    0.74649   1.00
H2       0.72633    0.76223    0.72601   1.00
C4       0.58632    0.80902    0.71279   1.00
C5       0.57937    0.84346    0.69369   1.00
H2       0.56228    0.81102    0.68274   1.00
H2       0.54831    0.85978    0.69624   1.00
H2       0.62313    0.88086    0.69005   1.00
C3       0.59384    0.74807    0.74865   1.00
H1       0.59597    0.72628    0.76038   1.00
C3       0.53271    0.78204    0.72769   1.00
H1       0.49369    0.78456    0.72520   1.00
C2       0.53693    0.75297    0.74512   1.00
C2       0.08384    0.18762    0.67679   1.00
C3       0.12330    0.19215    0.69232   1.00
H1       0.13312    0.15731    0.69431   1.00
C3       0.06872    0.23813    0.67441   1.00
H1       0.04037    0.23547    0.66383   1.00
C4       0.15005    0.24629    0.70557   1.00
C5       0.19496    0.25135    0.72340   1.00
H2       0.16679    0.22775    0.73486   1.00
H2       0.22189    0.23107    0.71979   1.00
H2       0.22446    0.29836    0.72682   1.00
C4       0.09423    0.29336    0.68738   1.00
C5       0.07517    0.35001    0.68486   1.00
H2       0.10965    0.38682    0.67704   1.00
H2       0.03209    0.33164    0.67806   1.00
H2       0.07210    0.36659    0.69795   1.00
C6       0.13446    0.29737    0.70343   1.00
C6       0.16120    0.35588    0.71761   1.00
C4       0.12619    0.35175    0.73525   1.00
C5       0.05762    0.29207    0.73883   1.00
H2       0.06191    0.25799    0.74627   1.00
H2       0.03074    0.30594    0.74649   1.00
H2       0.03589    0.27367    0.72601   1.00
C4       0.22269    0.41368    0.71279   1.00
C5       0.26408    0.42063    0.69369   1.00
H2       0.24873    0.43772    0.68274   1.00
H2       0.31146    0.45169    0.69624   1.00
H2       0.25772    0.37687    0.69005   1.00
C3       0.15422    0.40616    0.74865   1.00
H1       0.13030    0.40403    0.76038   1.00
C3       0.24932    0.46729    0.72769   1.00
H1       0.29086    0.50631    0.72520   1.00
C2       0.21603    0.46307    0.74512   1.00
C2       0.10377    0.91616    0.67679   1.00
C3       0.06884    0.87670    0.69232   1.00
H1       0.02418    0.86688    0.69431   1.00
C3       0.16940    0.93128    0.67441   1.00
H1       0.19509    0.95963    0.66383   1.00
C4       0.09623    0.84995    0.70557   1.00
C5       0.05638    0.80504    0.72340   1.00
H2       0.06095    0.83321    0.73486   1.00
H2       0.00917    0.77811    0.71979   1.00
H2       0.07389    0.77554    0.72682   1.00
C4       0.19912    0.90577    0.68738   1.00
C5       0.27483    0.92483    0.68486   1.00
H2       0.27716    0.89035    0.67704   1.00
H2       0.29954    0.96791    0.67806   1.00
H2       0.29448    0.92790    0.69795   1.00
C6       0.16290    0.86554    0.70343   1.00
C6       0.19467    0.83880    0.71761   1.00
C4       0.22555    0.87381    0.73525   1.00
C5       0.23444    0.94238    0.73883   1.00
H2       0.19607    0.93809    0.74627   1.00
H2       0.27519    0.96926    0.74649   1.00
H2       0.23777    0.96411    0.72601   1.00
C4       0.19098    0.77731    0.71279   1.00
C5       0.15654    0.73592    0.69369   1.00
H2       0.18898    0.75127    0.68274   1.00
H2       0.14022    0.68854    0.69624   1.00
H2       0.11914    0.74228    0.69005   1.00
C3       0.25193    0.84578    0.74865   1.00
H1       0.27372    0.86970    0.76038   1.00
C3       0.21796    0.75068    0.72769   1.00
H1       0.21544    0.70914    0.72520   1.00
C2       0.24703    0.78397    0.74512   1.00
