data_IRMOF10_interpen_symm_ligand4lp_label_d_2.

_audit_creation_method             'generated by an auxiliary program of Tobunporous'

_symmetry_space_group_name_H-M     'P 1'
_symmetry_Int_Tables_number        1
_symmetry_cell_setting             triclinic

_cell_length_a                    22.6523
_cell_length_b                    22.6523
_cell_length_c                    65.9502
_cell_angle_alpha                 90.0000
_cell_angle_beta                  90.0000
_cell_angle_gamma                 120.0000

loop_
_atom_site_label
_atom_site_fract_x
_atom_site_fract_y
_atom_site_fract_z
_atom_site_occupancy
O1       0.00000    -0.00000   0.62500   1.00
Zn1      0.00000    -0.00000   0.59589   1.00
Zn1      0.94848    1.04288    0.63392   1.00
Zn1      0.09439    0.05152    0.63392   1.00
Zn1      -0.04288   0.90561    0.63392   1.00
O2       0.93860    0.02610    0.58587   1.00
O2       0.08750    0.06140    0.58587   1.00
O2       -0.02610   0.91250    0.58587   1.00
O2       0.91305    0.07161    0.61181   1.00
O2       0.00462    0.12022    0.65110   1.00
O2       0.87413    0.98074    0.65071   1.00
O2       0.15856    0.08695    0.61181   1.00
O2       0.10660    0.12587    0.65071   1.00
O2       0.11559    0.99538    0.65110   1.00
O2       -0.07161   0.84144    0.61181   1.00
O2       0.87978    0.88441    0.65110   1.00
O2       0.01926    0.89340    0.65071   1.00
C1       0.91390    0.06020    0.59358   1.00
C1       0.14630    0.08610    0.59358   1.00
C1       -0.06020   0.85370    0.59358   1.00
C1       0.06663    0.14397    0.65673   1.00
C1       0.85603    0.92267    0.65673   1.00
C1       0.07733    0.93337    0.65673   1.00
O1       -0.00000   0.00000    0.87500   1.00
Zn1      -0.00000   0.00000    0.90411   1.00
Zn1      1.04288    0.94848    0.86608   1.00
Zn1      0.05152    0.09439    0.86608   1.00
Zn1      0.90561    -0.04288   0.86608   1.00
O2       0.02610    0.93860    0.91413   1.00
O2       0.06140    0.08750    0.91413   1.00
O2       0.91250    -0.02610   0.91413   1.00
O2       0.07161    0.91305    0.88819   1.00
O2       0.12022    0.00462    0.84890   1.00
O2       0.98074    0.87413    0.84929   1.00
O2       0.08695    0.15856    0.88819   1.00
O2       0.12587    0.10660    0.84929   1.00
O2       0.99538    0.11559    0.84890   1.00
O2       0.84144    -0.07161   0.88819   1.00
O2       0.88441    0.87978    0.84890   1.00
O2       0.89340    0.01926    0.84929   1.00
C1       0.06020    0.91390    0.90642   1.00
C1       0.08610    0.14630    0.90642   1.00
C1       0.85370    -0.06020   0.90642   1.00
C1       0.14397    0.06663    0.84327   1.00
C1       0.92267    0.85603    0.84327   1.00
C1       0.93337    0.07733    0.84327   1.00
O1       0.00000    0.00000    0.37500   1.00
Zn1      0.00000    0.00000    0.40411   1.00
Zn1      0.05152    -0.04288   0.36608   1.00
Zn1      0.90561    0.94848    0.36608   1.00
Zn1      1.04288    0.09439    0.36608   1.00
O2       0.06140    -0.02610   0.41413   1.00
O2       0.91250    0.93860    0.41413   1.00
O2       0.02610    0.08750    0.41413   1.00
O2       0.08695    -0.07161   0.38819   1.00
O2       0.99538    0.87978    0.34890   1.00
O2       0.12587    0.01926    0.34929   1.00
O2       0.84144    0.91305    0.38819   1.00
O2       0.89340    0.87413    0.34929   1.00
O2       0.88441    0.00462    0.34890   1.00
O2       0.07161    0.15856    0.38819   1.00
O2       0.12022    0.11559    0.34890   1.00
O2       0.98074    0.10660    0.34929   1.00
C1       0.08610    -0.06020   0.40642   1.00
C1       0.85370    0.91390    0.40642   1.00
C1       0.06020    0.14630    0.40642   1.00
C1       0.93337    0.85603    0.34327   1.00
C1       0.14397    0.07733    0.34327   1.00
C1       0.92267    0.06663    0.34327   1.00
O1       0.00000    0.00000    0.12500   1.00
Zn1      0.00000    0.00000    0.09589   1.00
Zn1      -0.04288   0.05152    0.13392   1.00
Zn1      0.94848    0.90561    0.13392   1.00
Zn1      0.09439    1.04288    0.13392   1.00
O2       -0.02610   0.06140    0.08587   1.00
O2       0.93860    0.91250    0.08587   1.00
O2       0.08750    0.02610    0.08587   1.00
O2       -0.07161   0.08695    0.11181   1.00
O2       0.87978    0.99538    0.15110   1.00
O2       0.01926    0.12587    0.15071   1.00
O2       0.91305    0.84144    0.11181   1.00
O2       0.87413    0.89340    0.15071   1.00
O2       0.00462    0.88441    0.15110   1.00
O2       0.15856    0.07161    0.11181   1.00
O2       0.11559    0.12022    0.15110   1.00
O2       0.10660    0.98074    0.15071   1.00
C1       -0.06020   0.08610    0.09358   1.00
C1       0.91390    0.85370    0.09358   1.00
C1       0.14630    0.06020    0.09358   1.00
C1       0.85603    0.93337    0.15673   1.00
C1       0.07733    0.14397    0.15673   1.00
C1       0.06663    0.92267    0.15673   1.00
O1       0.66667    0.33333    0.95833   1.00
Zn1      0.66667    0.33333    0.92922   1.00
Zn1      0.61515    0.37621    0.96725   1.00
Zn1      0.76106    0.38485    0.96725   1.00
Zn1      -0.37621   0.23894    0.96725   1.00
O2       0.60527    0.35943    0.91920   1.00
O2       0.75417    0.39473    0.91920   1.00
O2       0.64057    0.24583    0.91920   1.00
O2       0.57972    0.40494    0.94514   1.00
O2       0.67129    0.45355    0.98443   1.00
O2       0.54080    0.31407    0.98404   1.00
O2       0.82523    0.42028    0.94514   1.00
O2       0.77327    0.45920    0.98404   1.00
O2       -0.21774   0.32871    0.98443   1.00
O2       0.59506    0.17477    0.94514   1.00
O2       0.54645    0.21774    0.98443   1.00
O2       -0.31407   0.22673    0.98404   1.00
C1       0.58057    0.39353    0.92691   1.00
C1       0.81297    0.41943    0.92691   1.00
C1       0.60647    0.18703    0.92691   1.00
C1       0.73330    0.47730    0.99006   1.00
C1       0.52270    0.25600    0.99006   1.00
C1       -0.25600   0.26670    0.99006   1.00
O1       0.66667    0.33333    0.20833   1.00
Zn1      0.66667    0.33333    0.23744   1.00
Zn1      0.70954    0.28182    0.19942   1.00
Zn1      0.71818    0.42773    0.19942   1.00
Zn1      0.57227    0.29046    0.19942   1.00
O2       0.69277    0.27193    0.24746   1.00
O2       0.72807    0.42083    0.24746   1.00
O2       0.57917    0.30723    0.24746   1.00
O2       0.73828    0.24638    0.22152   1.00
O2       0.78688    0.33796    0.18224   1.00
O2       0.64740    0.20747    0.18263   1.00
O2       0.75362    0.49189    0.22152   1.00
O2       0.79253    0.43994    0.18263   1.00
O2       0.66204    0.44893    0.18224   1.00
O2       0.50811    0.26172    0.22152   1.00
O2       0.55107    0.21312    0.18224   1.00
O2       0.56006    0.35260    0.18263   1.00
C1       0.72687    0.24723    0.23975   1.00
C1       0.75277    0.47963    0.23975   1.00
C1       0.52037    0.27313    0.23975   1.00
C1       0.81063    0.39997    0.17661   1.00
C1       0.58933    0.18937    0.17661   1.00
C1       0.60003    0.41067    0.17661   1.00
O1       0.66667    0.33333    0.70833   1.00
Zn1      0.66667    0.33333    0.73744   1.00
Zn1      0.71818    0.29046    0.69942   1.00
Zn1      0.57227    0.28182    0.69942   1.00
Zn1      0.70954    0.42773    0.69942   1.00
O2       0.72807    0.30723    0.74746   1.00
O2       0.57917    0.27193    0.74746   1.00
O2       0.69277    0.42083    0.74746   1.00
O2       0.75362    0.26172    0.72152   1.00
O2       0.66204    0.21312    0.68224   1.00
O2       0.79253    0.35260    0.68263   1.00
O2       0.50811    0.24638    0.72152   1.00
O2       0.56006    0.20747    0.68263   1.00
O2       0.55107    0.33796    0.68224   1.00
O2       0.73828    0.49189    0.72152   1.00
O2       0.78688    0.44893    0.68224   1.00
O2       0.64740    0.43994    0.68263   1.00
C1       0.75277    0.27313    0.73975   1.00
C1       0.52037    0.24723    0.73975   1.00
C1       0.72687    0.47963    0.73975   1.00
C1       0.60003    0.18937    0.67661   1.00
C1       0.81063    0.41067    0.67661   1.00
C1       0.58933    0.39997    0.67661   1.00
O1       0.66667    0.33333    0.45833   1.00
Zn1      0.66667    0.33333    0.42922   1.00
Zn1      -0.37621   0.38485    0.46725   1.00
Zn1      0.61515    0.23894    0.46725   1.00
Zn1      0.76106    0.37621    0.46725   1.00
O2       0.64057    0.39473    0.41920   1.00
O2       0.60527    0.24583    0.41920   1.00
O2       0.75417    0.35943    0.41920   1.00
O2       0.59506    0.42028    0.44514   1.00
O2       0.54645    0.32871    0.48443   1.00
O2       -0.31407   0.45920    0.48404   1.00
O2       0.57972    0.17477    0.44514   1.00
O2       0.54080    0.22673    0.48404   1.00
O2       0.67129    0.21774    0.48443   1.00
O2       0.82523    0.40494    0.44514   1.00
O2       -0.21774   0.45355    0.48443   1.00
O2       0.77327    0.31407    0.48404   1.00
C1       0.60647    0.41943    0.42691   1.00
C1       0.58057    0.18703    0.42691   1.00
C1       0.81297    0.39353    0.42691   1.00
C1       0.52270    0.26670    0.49006   1.00
C1       -0.25600   0.47730    0.49006   1.00
C1       0.73330    0.25600    0.49006   1.00
O1       0.33333    0.66667    0.29167   1.00
Zn1      0.33333    0.66667    0.26256   1.00
Zn1      0.28182    0.70954    0.30058   1.00
Zn1      0.42773    0.71818    0.30058   1.00
Zn1      0.29046    0.57227    0.30058   1.00
O2       0.27193    0.69277    0.25254   1.00
O2       0.42083    0.72807    0.25254   1.00
O2       0.30723    0.57917    0.25254   1.00
O2       0.24638    0.73828    0.27848   1.00
O2       0.33796    0.78688    0.31776   1.00
O2       0.20747    0.64740    0.31737   1.00
O2       0.49189    0.75362    0.27848   1.00
O2       0.43994    0.79253    0.31737   1.00
O2       0.44893    0.66204    0.31776   1.00
O2       0.26172    0.50811    0.27848   1.00
O2       0.21312    0.55107    0.31776   1.00
O2       0.35260    0.56006    0.31737   1.00
C1       0.24723    0.72687    0.26025   1.00
C1       0.47963    0.75277    0.26025   1.00
C1       0.27313    0.52037    0.26025   1.00
C1       0.39997    0.81063    0.32339   1.00
C1       0.18937    0.58933    0.32339   1.00
C1       0.41067    0.60003    0.32339   1.00
O1       0.33333    0.66667    0.54167   1.00
Zn1      0.33333    0.66667    0.57078   1.00
Zn1      0.37621    0.61515    0.53275   1.00
Zn1      0.38485    0.76106    0.53275   1.00
Zn1      0.23894    -0.37621   0.53275   1.00
O2       0.35943    0.60527    0.58080   1.00
O2       0.39473    0.75417    0.58080   1.00
O2       0.24583    0.64057    0.58080   1.00
O2       0.40494    0.57972    0.55486   1.00
O2       0.45355    0.67129    0.51557   1.00
O2       0.31407    0.54080    0.51596   1.00
O2       0.42028    0.82523    0.55486   1.00
O2       0.45920    0.77327    0.51596   1.00
O2       0.32871    -0.21774   0.51557   1.00
O2       0.17477    0.59506    0.55486   1.00
O2       0.21774    0.54645    0.51557   1.00
O2       0.22673    -0.31407   0.51596   1.00
C1       0.39353    0.58057    0.57309   1.00
C1       0.41943    0.81297    0.57309   1.00
C1       0.18703    0.60647    0.57309   1.00
C1       0.47730    0.73330    0.50994   1.00
C1       0.25600    0.52270    0.50994   1.00
C1       0.26670    -0.25600   0.50994   1.00
O1       0.33333    0.66667    0.04167   1.00
Zn1      0.33333    0.66667    0.07078   1.00
Zn1      0.38485    -0.37621   0.03275   1.00
Zn1      0.23894    0.61515    0.03275   1.00
Zn1      0.37621    0.76106    0.03275   1.00
O2       0.39473    0.64057    0.08080   1.00
O2       0.24583    0.60527    0.08080   1.00
O2       0.35943    0.75417    0.08080   1.00
O2       0.42028    0.59506    0.05486   1.00
O2       0.32871    0.54645    0.01557   1.00
O2       0.45920    -0.31407   0.01596   1.00
O2       0.17477    0.57972    0.05486   1.00
O2       0.22673    0.54080    0.01596   1.00
O2       0.21774    0.67129    0.01557   1.00
O2       0.40494    0.82523    0.05486   1.00
O2       0.45355    -0.21774   0.01557   1.00
O2       0.31407    0.77327    0.01596   1.00
C1       0.41943    0.60647    0.07309   1.00
C1       0.18703    0.58057    0.07309   1.00
C1       0.39353    0.81297    0.07309   1.00
C1       0.26670    0.52270    0.00994   1.00
C1       0.47730    -0.25600   0.00994   1.00
C1       0.25600    0.73330    0.00994   1.00
O1       0.33333    0.66667    0.79167   1.00
Zn1      0.33333    0.66667    0.76256   1.00
Zn1      0.29046    0.71818    0.80058   1.00
Zn1      0.28182    0.57227    0.80058   1.00
Zn1      0.42773    0.70954    0.80058   1.00
O2       0.30723    0.72807    0.75254   1.00
O2       0.27193    0.57917    0.75254   1.00
O2       0.42083    0.69277    0.75254   1.00
O2       0.26172    0.75362    0.77848   1.00
O2       0.21312    0.66204    0.81776   1.00
O2       0.35260    0.79253    0.81737   1.00
O2       0.24638    0.50811    0.77848   1.00
O2       0.20747    0.56006    0.81737   1.00
O2       0.33796    0.55107    0.81776   1.00
O2       0.49189    0.73828    0.77848   1.00
O2       0.44893    0.78688    0.81776   1.00
O2       0.43994    0.64740    0.81737   1.00
C1       0.27313    0.75277    0.76025   1.00
C1       0.24723    0.52037    0.76025   1.00
C1       0.47963    0.72687    0.76025   1.00
C1       0.18937    0.60003    0.82339   1.00
C1       0.41067    0.81063    0.82339   1.00
C1       0.39997    0.58933    0.82339   1.00
C4       -0.17783   0.62770    0.53934   1.00
C4       -0.15113   0.68352    0.55327   1.00
C3       -0.16124   0.57482    0.54052   1.00
C3       -0.11190   0.68667    0.57056   1.00
C3       -0.22283   0.62383    0.52352   1.00
C3       -0.16373   0.73870    0.55003   1.00
C2       -0.23441   0.51303    0.51181   1.00
C2       -0.09429   0.79796    0.58088   1.00
C3       -0.18887   0.51902    0.52726   1.00
C3       -0.08401   0.74224    0.58391   1.00
C3       -0.25015   0.56596    0.51039   1.00
C3       -0.13410   0.79451    0.56392   1.00
H1       -0.12793   0.57522    0.55094   1.00
H1       -0.10269   0.64839    0.57421   1.00
C5       -0.23914   0.67698    0.52104   1.00
C5       -0.20525   0.73707    0.53337   1.00
H1       -0.17509   0.48244    0.52896   1.00
H1       -0.05595   0.74155    0.59605   1.00
H1       -0.28268   0.56116    0.49905   1.00
H1       -0.14152   0.83490    0.56205   1.00
C6       -0.29238   0.66868    0.50564   1.00
C6       -0.21214   0.79893    0.52888   1.00
H2       -0.33568   0.61701    0.50663   1.00
H2       -0.16217   0.84466    0.53010   1.00
H2       -0.31578   0.69893    0.50960   1.00
H2       -0.22462   0.80064    0.51305   1.00
C6       -0.26380   0.68687    0.48348   1.00
C6       -0.26628   0.80350    0.54259   1.00
H2       -0.23172   0.66448    0.48038   1.00
H2       -0.26025   0.79195    0.55829   1.00
C6       -0.31668   0.66597    0.46579   1.00
C6       -0.26709   0.87223    0.54251   1.00
H2       -0.22946   0.74198    0.48277   1.00
H2       -0.31666   0.76269    0.53798   1.00
C6       -0.36061   0.58738    0.46364   1.00
C6       -0.20113   0.93120    0.55195   1.00
C6       -0.36419   0.69622    0.46871   1.00
C6       -0.27636   0.89256    0.52080   1.00
C6       -0.27715   0.69429    0.44559   1.00
C6       -0.32815   0.86310    0.55558   1.00
H2       -0.32851   0.56434    0.46188   1.00
H2       -0.19253   0.91798    0.56717   1.00
H2       -0.39301   0.56444    0.47685   1.00
H2       -0.15648   0.94323    0.54279   1.00
H2       -0.39397   0.57335    0.45042   1.00
H2       -0.20419   0.97767    0.55312   1.00
H2       -0.39754   0.68547    0.45561   1.00
H2       -0.28175   0.93783    0.52108   1.00
H2       -0.39662   0.67436    0.48199   1.00
H2       -0.23241   0.90416    0.51133   1.00
H2       -0.33448   0.75140    0.47069   1.00
H2       -0.32170   0.85131    0.51365   1.00
H2       -0.24329   0.67389    0.44269   1.00
H2       -0.32372   0.84938    0.57116   1.00
H2       -0.31197   0.68059    0.43273   1.00
H2       -0.33062   0.91001    0.55611   1.00
H2       -0.24617   0.74980    0.44601   1.00
H2       -0.37644   0.82300    0.54944   1.00
C4       0.36953    0.19014    0.53838   1.00
C4       0.31262    0.16086    0.55191   1.00
C3       0.43679    0.23789    0.54497   1.00
C3       0.32007    0.17168    0.57327   1.00
C3       0.35974    0.17162    0.51740   1.00
C3       0.24534    0.11893    0.54406   1.00
C2       0.48522    0.24684    0.51123   1.00
C2       0.19728    0.10443    0.57919   1.00
C3       0.49300    0.26519    0.53186   1.00
C3       0.26421    0.14467    0.58652   1.00
C3       0.41838    0.20029    0.50457   1.00
C3       0.18978    0.09269    0.55804   1.00
H1       0.44735    0.25515    0.55949   1.00
H1       0.36641    0.19904    0.58004   1.00
C5       0.29278    0.12599    0.50971   1.00
C5       0.23489    0.10387    0.52279   1.00
H1       0.54023    0.29918    0.53756   1.00
H1       0.27297    0.15458    0.60176   1.00
H1       0.41355    0.18799    0.48960   1.00
H1       0.14115    0.06306    0.55301   1.00
C6       0.28416    0.10122    0.48800   1.00
C6       0.16306    0.06556    0.51441   1.00
H2       0.32307    0.08779    0.48458   1.00
H2       0.13307    0.08598    0.52116   1.00
H2       0.23760    0.05255    0.48601   1.00
H2       0.16160    0.07656    0.49843   1.00
C6       0.28491    0.15354    0.47228   1.00
C6       0.12809    -0.01360   0.51732   1.00
H2       0.32611    0.20480    0.47601   1.00
H2       0.13790    -0.02485   0.53267   1.00
C6       0.29168    0.14050    0.44930   1.00
C6       0.04947    -0.05690   0.51342   1.00
H2       0.23794    0.15531    0.47430   1.00
H2       0.15360    -0.03220   0.50727   1.00
C6       0.36218    0.14803    0.44449   1.00
C6       0.00846    -0.04130   0.52927   1.00
C6       0.23464    0.06902    0.44248   1.00
C6       0.03054    -0.04499   0.49182   1.00
C6       0.28510    0.19459    0.43655   1.00
C6       0.02724    -0.13359   0.51539   1.00
H2       0.40360    0.19760    0.44943   1.00
H2       0.02151    -0.04816   0.54470   1.00
H2       0.36857    0.10875    0.45200   1.00
H2       0.01847    0.01083    0.52789   1.00
H2       0.36821    0.14354    0.42824   1.00
H2       -0.04630   -0.07503   0.52729   1.00
H2       0.23689    0.06232    0.42616   1.00
H2       -0.02356   -0.07895   0.48875   1.00
H2       0.23975    0.02892    0.44999   1.00
H2       0.04084    0.00719    0.49007   1.00
H2       0.18446    0.06186    0.44609   1.00
H2       0.05980    -0.05424   0.48039   1.00
H2       0.32475    0.24612    0.44064   1.00
H2       0.03884    -0.14492   0.53049   1.00
H2       0.28995    0.18787    0.42036   1.00
H2       -0.02750   -0.16598   0.51292   1.00
H2       0.23570    0.19095    0.43898   1.00
H2       0.05348    -0.14811   0.50430   1.00
C4       0.81031    0.17370    0.53617   1.00
C4       0.83723    0.14308    0.54945   1.00
C3       0.83259    0.24472    0.53672   1.00
C3       0.89317    0.18224    0.56269   1.00
C3       0.75903    0.13250    0.52170   1.00
C3       0.80779    0.07059    0.54967   1.00
C2       0.75832    0.23628    0.50865   1.00
C2       0.88957    0.08100    0.57702   1.00
C3       0.80773    0.27523    0.52334   1.00
C3       0.91841    0.15226    0.57615   1.00
C3       0.73531    0.16561    0.50827   1.00
C3       0.83475    0.04203    0.56367   1.00
H1       0.86724    0.27683    0.54701   1.00
H1       0.91811    0.23407    0.56292   1.00
C5       0.73252    0.06025    0.52099   1.00
C5       0.75325    0.02867    0.53607   1.00
H1       0.82607    0.32675    0.52446   1.00
H1       0.95869    0.18332    0.58537   1.00
H1       0.69921    0.13811    0.49769   1.00
H1       0.81487    -0.00933   0.56437   1.00
C6       0.68369    0.01845    0.50423   1.00
C6       0.71784    -0.04820   0.53797   1.00
H2       0.70217    0.04550    0.48990   1.00
H2       0.70870    -0.06209   0.55395   1.00
H2       0.68506    -0.02808   0.50131   1.00
H2       0.66618    -0.07250   0.53202   1.00
C6       0.60819    -0.00032   0.50853   1.00
C6       0.75751    -0.07990   0.52735   1.00
H2       0.60733    0.04446    0.51435   1.00
H2       0.81178    -0.04943   0.53096   1.00
C6       0.55631    -0.02995   0.49052   1.00
C6       0.73415    -0.15624   0.53207   1.00
H2       0.58904    -0.03726   0.52093   1.00
H2       0.75418    -0.07462   0.51098   1.00
C6       0.57380    0.02362    0.47351   1.00
C6       0.74753    -0.16633   0.55454   1.00
C6       0.55327    -0.09446   0.48139   1.00
C6       0.65765    -0.20379   0.52717   1.00
C6       0.48420    -0.05041   0.49865   1.00
C6       0.77609    -0.17829   0.51862   1.00
H2       0.57743    0.07026    0.47953   1.00
H2       0.80094    -0.13262   0.55858   1.00
H2       0.62215    0.03724    0.46624   1.00
H2       0.71636    -0.15575   0.56483   1.00
H2       0.53479    0.00409    0.46171   1.00
H2       0.73552    -0.21868   0.55733   1.00
H2       0.51354    -0.11749   0.46985   1.00
H2       0.64307    -0.25725   0.52913   1.00
H2       0.60149    -0.08200   0.47421   1.00
H2       0.62555    -0.19353   0.53719   1.00
H2       0.54243    -0.13247   0.49314   1.00
H2       0.64656    -0.19666   0.51155   1.00
H2       0.48336    -0.00641   0.50509   1.00
H2       0.83060    -0.14668   0.52165   1.00
H2       0.44615    -0.07103   0.48657   1.00
H2       0.76190    -0.23126   0.52148   1.00
H2       0.46834    -0.08923   0.51045   1.00
H2       0.76770    -0.17363   0.50254   1.00
C4       0.63740    -0.17087   0.96414   1.00
C4       0.69463    -0.13964   0.95075   1.00
C3       0.60263    -0.24203   0.96849   1.00
C3       0.72546    -0.17586   0.94248   1.00
C3       0.61325    -0.13017   0.97365   1.00
C3       0.72283    -0.06952   0.94528   1.00
C2       0.52376    -0.23351   0.99198   1.00
C2       0.80825    -0.07749   0.92290   1.00
C3       0.54776    -0.27246   0.98206   1.00
C3       0.78032    -0.14595   0.92890   1.00
C3       0.55746    -0.16306   0.98745   1.00
C3       0.77846    -0.04108   0.93132   1.00
H1       0.61544    -0.27455   0.96182   1.00
H1       0.70966    -0.22515   0.94618   1.00
C5       0.64436    -0.05878   0.96920   1.00
C5       0.69579    -0.02965   0.95378   1.00
H1       0.52503    -0.32400   0.98461   1.00
H1       0.80010    -0.17490   0.92341   1.00
H1       0.53914    -0.13575   0.99461   1.00
H1       0.79959    0.00848    0.92696   1.00
C6       0.62311    -0.01502   0.98098   1.00
C6       0.72127    0.04225    0.94623   1.00
H2       0.61895    -0.02840   0.99699   1.00
H2       0.72497    0.04281    0.92974   1.00
H2       0.66322    0.03815    0.98122   1.00
H2       0.68370    0.05812    0.94850   1.00
C6       0.55592    -0.01971   0.97277   1.00
C6       0.79027    0.09612    0.95622   1.00
H2       0.51825    -0.07296   0.96968   1.00
H2       0.82526    0.07606    0.95664   1.00
C6       0.52094    0.01087    0.98631   1.00
C6       0.82903    0.16885    0.94645   1.00
H2       0.56737    0.00568    0.95803   1.00
H2       0.77995    0.10160    0.97209   1.00
C6       0.49310    -0.02965   1.00635   1.00
C6       0.85532    0.16698    0.92487   1.00
C6       0.57037    0.08692    0.99132   1.00
C6       0.78360    0.20201    0.94542   1.00
C6       0.45943    0.00615    0.97447   1.00
C6       0.89206    0.21498    0.95980   1.00
H2       0.45885    -0.08379   1.00334   1.00
H2       0.88670    0.14281    0.92503   1.00
H2       0.53418    -0.02502   1.01602   1.00
H2       0.81338    0.13877    0.91434   1.00
H2       0.46472    -0.01095   1.01501   1.00
H2       0.88626    0.21833    0.91876   1.00
H2       0.54417    0.10903    0.99951   1.00
H2       0.81253    0.25445    0.93995   1.00
H2       0.61229    0.09270    1.00084   1.00
H2       0.74086    0.17408    0.93509   1.00
H2       0.59182    0.11636    0.97747   1.00
H2       0.76325    0.20266    0.96037   1.00
H2       0.42251    -0.04673   0.97073   1.00
H2       0.92628    0.19418    0.96085   1.00
H2       0.43299    0.02652    0.98337   1.00
H2       0.92112    0.26634    0.95351   1.00
H2       0.47600    0.03497    0.96033   1.00
H2       0.87671    0.21946    0.97516   1.00
C4       0.19008    0.36947    0.96164   1.00
C4       0.16081    0.31254    0.94811   1.00
C3       0.23726    0.43685    0.95501   1.00
C3       0.17102    0.32003    0.92673   1.00
C3       0.17215    0.35957    0.98266   1.00
C3       0.11952    0.24519    0.95600   1.00
C2       0.24674    0.48517    0.98879   1.00
C2       0.10441    0.19719    0.92084   1.00
C3       0.26453    0.49306    0.96811   1.00
C3       0.14402    0.26418    0.91349   1.00
C3       0.20077    0.41822    0.99549   1.00
C3       0.09327    0.18964    0.94202   1.00
H1       0.25410    0.44750    0.94044   1.00
H1       0.19790    0.36641    0.91995   1.00
C5       0.12713    0.29251    0.99040   1.00
C5       0.10506    0.23468    0.97730   1.00
H1       0.29809    0.54038    0.96237   1.00
H1       0.15348    0.27297    0.89823   1.00
H1       0.18888    0.41331    1.01050   1.00
H1       0.06408    0.14097    0.94706   1.00
C6       0.10292    0.28372    1.01217   1.00
C6       0.06746    0.16284    0.98569   1.00
H2       0.08918    0.32234    1.01570   1.00
H2       0.08805    0.13316    0.97882   1.00
H2       0.05451    0.23694    1.01425   1.00
H2       0.07897    0.16149    1.00163   1.00
C6       0.15591    0.28496    1.02772   1.00
C6       -0.01181   0.12731    0.98298   1.00
H2       0.20691    0.32643    1.02389   1.00
H2       -0.02363   0.13696    0.96768   1.00
C6       0.14338    0.29160    1.05075   1.00
C6       -0.05449   0.04866    0.98689   1.00
H2       0.15805    0.23821    1.02562   1.00
H2       -0.03045   0.15254    0.99313   1.00
C6       0.15044    0.36186    1.05565   1.00
C6       -0.03890   0.00796    0.97094   1.00
C6       0.07228    0.23418    1.05772   1.00
C6       -0.04176   0.02994    1.00842   1.00
C6       0.19812    0.28554    1.06332   1.00
C6       -0.13137   0.02584    0.98514   1.00
H2       0.19972    0.40353    1.05062   1.00
H2       -0.04633   0.02087    0.95554   1.00
H2       0.11073    0.36785    1.04828   1.00
H2       0.01342    0.01840    0.97216   1.00
H2       0.14633    0.36782    1.07193   1.00
H2       -0.07223   -0.04685   0.97294   1.00
H2       0.06598    0.23638    1.07406   1.00
H2       -0.07530   -0.02422   1.01153   1.00
H2       0.03175    0.23890    1.05034   1.00
H2       0.01060    0.04066    1.01002   1.00
H2       0.06544    0.18416    1.05406   1.00
H2       -0.05100   0.05899    1.01994   1.00
H2       0.24941    0.32548    1.05913   1.00
H2       -0.14328   0.03727    0.97010   1.00
H2       0.19177    0.29033    1.07954   1.00
H2       -0.16335   -0.02895   0.98762   1.00
H2       0.19484    0.23634    1.06083   1.00
H2       -0.14588   0.05183    0.99632   1.00
C4       0.17369    0.81030    0.96383   1.00
C4       0.14307    0.83722    0.95055   1.00
C3       0.24472    0.83265    0.96329   1.00
C3       0.18224    0.89321    0.93732   1.00
C3       0.13248    0.75897    0.97828   1.00
C3       0.07057    0.80773    0.95032   1.00
C2       0.23627    0.75832    0.99135   1.00
C2       0.08099    0.88956    0.92298   1.00
C3       0.27523    0.80778    0.97668   1.00
C3       0.15225    0.91845    0.92387   1.00
C3       0.16559    0.73525    0.99172   1.00
C3       0.04201    0.83469    0.93631   1.00
H1       0.27684    0.86734    0.95302   1.00
H1       0.23406    0.91819    0.93711   1.00
C5       0.06022    0.73240    0.97898   1.00
C5       0.02865    0.75314    0.96389   1.00
H1       0.32677    0.82617    0.97557   1.00
H1       0.18331    0.95877    0.91466   1.00
H1       0.13808    0.69911    1.00229   1.00
H1       -0.00935   0.81476    0.93560   1.00
C6       0.01840    0.68350    0.99572   1.00
C6       -0.04822   0.71766    0.96198   1.00
H2       0.04540    0.70196    1.01007   1.00
H2       -0.06206   0.70856    0.94599   1.00
H2       -0.02817   0.68482    0.99864   1.00
H2       -0.07250   0.66599    0.96792   1.00
C6       -0.00029   0.60803    0.99141   1.00
C6       -0.08000   0.75726    0.97260   1.00
H2       0.04452    0.60723    0.98560   1.00
H2       -0.04957   0.81155    0.96901   1.00
C6       -0.02995   0.55609    1.00940   1.00
C6       -0.15635   0.73385    0.96786   1.00
H2       -0.03720   0.58889    0.97900   1.00
H2       -0.07477   0.75388    0.98897   1.00
C6       0.02359    0.57358    1.02643   1.00
C6       -0.16639   0.74728    0.94540   1.00
C6       -0.09451   0.55296    1.01852   1.00
C6       -0.20386   0.65732    0.97274   1.00
C6       -0.05032   0.48403    1.00125   1.00
C6       -0.17848   0.77570    0.98131   1.00
H2       0.07026    0.57727    1.02041   1.00
H2       -0.13271   0.80071    0.94137   1.00
H2       0.03714    0.62190    1.03370   1.00
H2       -0.15574   0.71617    0.93510   1.00
H2       0.00405    0.53453    1.03822   1.00
H2       -0.21874   0.73523    0.94259   1.00
H2       -0.11754   0.51319    1.03005   1.00
H2       -0.25733   0.64271    0.97077   1.00
H2       -0.08211   0.60115    1.02571   1.00
H2       -0.19354   0.62528    0.96271   1.00
H2       -0.13249   0.54213    1.00676   1.00
H2       -0.19676   0.64620    0.98836   1.00
H2       -0.00628   0.48325    0.99482   1.00
H2       -0.14691   0.83023    0.97830   1.00
H2       -0.07095   0.44594    1.01332   1.00
H2       -0.23146   0.76148    0.97845   1.00
H2       -0.08910   0.46816    0.98944   1.00
H2       -0.17386   0.76728    0.99740   1.00
C4       0.17619    0.37298    0.46044   1.00
C4       0.14634    0.31845    0.44609   1.00
C3       0.23973    0.39289    0.47009   1.00
C3       0.18115    0.28484    0.43881   1.00
C3       0.14184    0.40949    0.46553   1.00
C3       0.07921    0.29607    0.43854   1.00
C2       0.23821    0.48540    0.48871   1.00
C2       0.08477    0.20596    0.41783   1.00
C3       0.27006    0.44757    0.48372   1.00
C3       0.15129    0.23009    0.42519   1.00
C3       0.17463    0.46511    0.47940   1.00
C3       0.05048    0.23989    0.42477   1.00
H1       0.26604    0.36796    0.46774   1.00
H1       0.22976    0.29933    0.44297   1.00
C5       0.07638    0.38998    0.45695   1.00
C5       0.04276    0.32978    0.44466   1.00
H1       0.31609    0.45955    0.49011   1.00
H1       0.17897    0.20784    0.42058   1.00
H1       0.15203    0.49260    0.48329   1.00
H1       0.00270    0.22221    0.41918   1.00
C6       0.04404    0.43349    0.46078   1.00
C6       -0.03082   0.30103    0.43827   1.00
H2       0.08275    0.48705    0.45917   1.00
H2       -0.05778   0.24583    0.44016   1.00
H2       0.00838    0.42754    0.44884   1.00
H2       -0.05838   0.31579    0.44868   1.00
C6       0.00678    0.41887    0.48177   1.00
C6       -0.03860   0.32192    0.41619   1.00
H2       0.03870    0.41493    0.49352   1.00
H2       -0.00337   0.31651    0.40606   1.00
C6       -0.01522   0.47057    0.48933   1.00
C6       -0.11120   0.28340    0.40634   1.00
H2       -0.03865   0.36832    0.48097   1.00
H2       -0.02144   0.37641    0.41630   1.00
C6       0.04738    0.54149    0.49401   1.00
C6       -0.13498   0.20708    0.40260   1.00
C6       -0.06162   0.47896    0.47372   1.00
C6       -0.16482   0.28895    0.41954   1.00
C6       -0.05625   0.44287    0.50933   1.00
C6       -0.10811   0.31638    0.38543   1.00
H2       0.08175    0.53718    0.50475   1.00
H2       -0.09765   0.20140    0.39359   1.00
H2       0.07631    0.56585    0.48033   1.00
H2       -0.14232   0.17970    0.41681   1.00
H2       0.03167    0.57570    0.50059   1.00
H2       -0.18343   0.18180    0.39447   1.00
H2       -0.08062   0.51125    0.47973   1.00
H2       -0.21410   0.26617    0.41187   1.00
H2       -0.03375   0.50269    0.45981   1.00
H2       -0.17242   0.26239    0.43393   1.00
H2       -0.10539   0.42957    0.46984   1.00
H2       -0.14861   0.34217    0.42275   1.00
H2       -0.02547   0.43668    0.52097   1.00
H2       -0.07141   0.31318    0.37541   1.00
H2       -0.07240   0.47754    0.51530   1.00
H2       -0.15765   0.29087    0.37787   1.00
H2       -0.10193   0.39341    0.50692   1.00
H2       -0.09292   0.37009    0.38710   1.00
C4       0.63610    0.81089    0.46364   1.00
C4       0.69182    0.83995    0.44968   1.00
C3       0.63670    0.77560    0.48147   1.00
C3       0.75471    0.84204    0.45362   1.00
C3       0.57707    0.81678    0.45987   1.00
C3       0.68534    0.86834    0.43101   1.00
C2       0.52488    0.75501    0.49240   1.00
C2       0.80333    0.89568    0.42103   1.00
C3       0.58300    0.74877    0.49548   1.00
C3       0.80871    0.86872    0.43971   1.00
C3       0.52364    0.78907    0.47457   1.00
C3       0.74140    0.89467    0.41720   1.00
H1       0.67588    0.76747    0.48483   1.00
H1       0.76389    0.82487    0.46683   1.00
C5       0.57229    0.84924    0.44176   1.00
C5       0.62434    0.87029    0.42657   1.00
H1       0.58665    0.72411    0.50808   1.00
H1       0.85264    0.86848    0.44342   1.00
H1       0.48105    0.79266    0.47249   1.00
H1       0.73855    0.91486    0.40371   1.00
C6       0.51291    0.86153    0.43901   1.00
C6       0.61534    0.89377    0.40588   1.00
H2       0.50396    0.88046    0.45320   1.00
H2       0.63187    0.87087    0.39429   1.00
H2       0.52563    0.90399    0.42882   1.00
H2       0.56181    0.87266    0.40208   1.00
C6       0.44663    0.79718    0.43115   1.00
C6       0.65255    0.97333    0.40377   1.00
H2       0.43890    0.75207    0.43946   1.00
H2       0.70363    0.99576    0.41032   1.00
C6       0.37844    0.79894    0.43204   1.00
C6       0.65967    1.00351    0.38196   1.00
H2       0.45553    0.78842    0.41544   1.00
H2       0.62541    0.99164    0.41324   1.00
C6       0.35619    0.80028    0.45421   1.00
C6       0.70698    0.98907    0.36837   1.00
C6       0.38413    0.86100    0.42039   1.00
C6       0.58942    0.97523    0.37148   1.00
C6       0.32136    0.73317    0.42189   1.00
C6       0.69226    1.08210    0.38371   1.00
H2       0.35278    0.75768    0.46294   1.00
H2       0.75668    1.00745    0.37551   1.00
H2       0.39206    0.84731    0.46190   1.00
H2       0.68505    0.93475    0.36547   1.00
H2       0.30634    0.79672    0.45470   1.00
H2       0.71541    1.01429    0.35369   1.00
H2       0.33503    0.85910    0.41986   1.00
H2       0.59445    1.00018    0.35690   1.00
H2       0.42036    0.90869    0.42774   1.00
H2       0.56628    0.92069    0.36861   1.00
H2       0.40111    0.86207    0.40484   1.00
H2       0.55465    0.98347    0.38093   1.00
H2       0.31474    0.68771    0.42969   1.00
H2       0.74244    1.10477    0.39084   1.00
H2       0.27249    0.73181    0.42225   1.00
H2       0.69873    1.10563    0.36882   1.00
H2       0.33346    0.72996    0.40605   1.00
H2       0.66048    1.09560    0.39281   1.00
C4       0.19027    -0.17939   0.46157   1.00
C4       0.16365    -0.15176   0.44710   1.00
C3       0.16277    -0.19887   0.48148   1.00
C3       0.10341    -0.14835   0.45076   1.00
C3       0.24660    -0.18815   0.45620   1.00
C3       0.19786    -0.12644   0.42816   1.00
C2       0.24189    -0.23838   0.49051   1.00
C2       0.11163    -0.09285   0.41827   1.00
C3       0.18747    -0.22778   0.49550   1.00
C3       0.07828    -0.11952   0.43686   1.00
C3       0.27001    -0.21813   0.47088   1.00
C3       0.17082    -0.09712   0.41446   1.00
H1       0.12419    -0.19214   0.48661   1.00
H1       0.07514    -0.16731   0.46358   1.00
C5       0.27827    -0.16685   0.43668   1.00
C5       0.25711    -0.13109   0.42326   1.00
H1       0.16525    -0.24100   0.50959   1.00
H1       0.03474    -0.11834   0.44043   1.00
H1       0.30965    -0.22560   0.46757   1.00
H1       0.19398    -0.07815   0.40089   1.00
C6       0.33296    -0.18303   0.43042   1.00
C6       0.29692    -0.09760   0.40414   1.00
H2       0.31704    -0.23537   0.43471   1.00
H2       0.30236    -0.04719   0.40266   1.00
H2       0.33651    -0.18516   0.41402   1.00
H2       0.34977    -0.08515   0.40539   1.00
C6       0.40514    -0.13148   0.43914   1.00
C6       0.26492    -0.14180   0.38462   1.00
H2       0.40046    -0.12140   0.45510   1.00
H2       0.20970    -0.16285   0.38475   1.00
C6       0.46203    -0.15131   0.43750   1.00
C6       0.29243    -0.10652   0.36359   1.00
H2       0.42310    -0.08274   0.43142   1.00
H2       0.27218    -0.18593   0.38557   1.00
C6       0.44549    -0.21428   0.45079   1.00
C6       0.27434    -0.04989   0.35961   1.00
C6       0.47307    -0.16579   0.41527   1.00
C6       0.37063    -0.07570   0.36186   1.00
C6       0.53007    -0.09064   0.44534   1.00
C6       0.25824    -0.16099   0.34666   1.00
H2       0.43631    -0.20610   0.46653   1.00
H2       0.21954    -0.06978   0.36105   1.00
H2       0.40038    -0.25993   0.44533   1.00
H2       0.30018    -0.00776   0.37024   1.00
H2       0.48754    -0.22481   0.45066   1.00
H2       0.28953    -0.02888   0.34437   1.00
H2       0.51603    -0.17476   0.41411   1.00
H2       0.38858    -0.05558   0.34666   1.00
H2       0.42816    -0.21099   0.40945   1.00
H2       0.39745    -0.03381   0.37254   1.00
H2       0.48340    -0.12277   0.40551   1.00
H2       0.38489    -0.11422   0.36502   1.00
H2       0.52525    -0.07875   0.46110   1.00
H2       0.20285    -0.18391   0.34708   1.00
H2       0.57138    -0.10224   0.44463   1.00
H2       0.27553    -0.13866   0.33164   1.00
H2       0.54524    -0.04490   0.43629   1.00
H2       0.27028    -0.20175   0.34841   1.00
C4       0.36260    0.17084    0.03586   1.00
C4       0.30599    0.14357    0.04950   1.00
C3       0.37974    0.12851    0.02422   1.00
C3       0.25846    0.07238    0.05087   1.00
C3       0.40429    0.24308    0.03361   1.00
C3       0.29565    0.18848    0.06236   1.00
C2       0.47505    0.22583    0.00753   1.00
C2       0.19340    0.08807    0.07778   1.00
C3       0.43400    0.15503    0.01040   1.00
C3       0.20405    0.04532    0.06464   1.00
C3       0.45885    0.26802    0.01929   1.00
C3       0.23983    0.15883    0.07624   1.00
H1       0.35385    0.07684    0.02549   1.00
H1       0.26120    0.03757    0.04177   1.00
C5       0.39130    0.28832    0.04554   1.00
C5       0.34013    0.26085    0.06107   1.00
H1       0.44355    0.12178    0.00240   1.00
H1       0.17172    -0.00651   0.06493   1.00
H1       0.48933    0.31905    0.01716   1.00
H1       0.23110    0.18906    0.08573   1.00
C6       0.43115    0.36427    0.04146   1.00
C6       0.33301    0.30717    0.07622   1.00
H2       0.43456    0.37282    0.02513   1.00
H2       0.32597    0.28507    0.09132   1.00
H2       0.40320    0.38934    0.04624   1.00
H2       0.38050    0.35508    0.07804   1.00
C6       0.50328    0.40076    0.05170   1.00
C6       0.27480    0.32267    0.07068   1.00
H2       0.52795    0.37031    0.04942   1.00
H2       0.22938    0.27560    0.06594   1.00
C6       0.55464    0.47558    0.04494   1.00
C6       0.25267    0.35705    0.08732   1.00
H2       0.49577    0.40069    0.06807   1.00
H2       0.29105    0.35536    0.05726   1.00
C6       0.57668    0.47877    0.02250   1.00
C6       0.21864    0.30905    0.10571   1.00
C6       0.52440    0.52308    0.04786   1.00
C6       0.31382    0.42499    0.09485   1.00
C6       0.61972    0.50332    0.05825   1.00
C6       0.19931    0.37310    0.07797   1.00
H2       0.59725    0.44489    0.01986   1.00
H2       0.17591    0.26015    0.10086   1.00
H2       0.53401    0.46391    0.01217   1.00
H2       0.25464    0.29898    0.11378   1.00
H2       0.61597    0.53033    0.01835   1.00
H2       0.19917    0.33155    0.11656   1.00
H2       0.56225    0.57596    0.04449   1.00
H2       0.29706    0.45092    0.10535   1.00
H2       0.48113    0.50861    0.03778   1.00
H2       0.35082    0.41606    0.10281   1.00
H2       0.50715    0.52069    0.06345   1.00
H2       0.33958    0.45919    0.08214   1.00
H2       0.64355    0.47192    0.05658   1.00
H2       0.15463    0.32660    0.07260   1.00
H2       0.65743    0.55542    0.05400   1.00
H2       0.18191    0.39682    0.08908   1.00
H2       0.60769    0.50365    0.07427   1.00
H2       0.22077    0.40796    0.06514   1.00
C4       0.81029    0.63662    0.03616   1.00
C4       0.83950    0.69261    0.05003   1.00
C3       0.76692    0.63263    0.01992   1.00
C3       0.83329    0.75172    0.04738   1.00
C3       0.82434    0.58203    0.03841   1.00
C3       0.87661    0.69031    0.06727   1.00
C2       0.75387    0.52507    0.00752   1.00
C2       0.89569    0.80440    0.07859   1.00
C3       0.73979    0.57879    0.00596   1.00
C3       0.86018    0.80582    0.06125   1.00
C3       0.79602    0.52832    0.02380   1.00
C3       0.90288    0.74630    0.08110   1.00
H1       0.75287    0.66835    0.01775   1.00
H1       0.80958    0.75799    0.03516   1.00
C5       0.86531    0.58178    0.05497   1.00
C5       0.88701    0.63344    0.07030   1.00
H1       0.70909    0.57904    -0.00547   1.00
H1       0.85373    0.84689    0.05851   1.00
H1       0.80524    0.48884    0.02482   1.00
H1       0.92914    0.74632    0.09361   1.00
C6       0.88573    0.52757    0.05593   1.00
C6       0.91998    0.62829    0.08969   1.00
H2       0.90139    0.52092    0.04087   1.00
H2       0.89840    0.64152    0.10249   1.00
H2       0.93235    0.54464    0.06458   1.00
H2       0.90523    0.57578    0.09318   1.00
C6       0.82866    0.45828    0.06494   1.00
C6       0.99976    0.67233    0.08933   1.00
H2       0.77938    0.44563    0.05837   1.00
H2       1.01518    0.72262    0.08300   1.00
C6       0.83774    0.39449    0.06253   1.00
C6       1.03836    0.68310    0.10991   1.00
H2       0.82417    0.46608    0.08109   1.00
H2       1.01850    0.64869    0.07861   1.00
C6       0.83363    0.37313    0.03999   1.00
C6       1.02291    0.72621    0.12500   1.00
C6       0.90616    0.40725    0.07168   1.00
C6       1.02037    0.61427    0.11997   1.00
C6       0.77899    0.33374    0.07407   1.00
C6       1.11624    0.72258    0.10565   1.00
H2       0.78635    0.36481    0.03299   1.00
H2       1.03404    0.77473    0.11822   1.00
H2       0.87603    0.41192    0.03120   1.00
H2       0.96962    0.69953    0.12963   1.00
H2       0.83526    0.32595    0.03858   1.00
H2       1.05362    0.73743    0.13872   1.00
H2       0.90981    0.36099    0.07124   1.00
H2       1.05113    0.62226    0.13353   1.00
H2       0.94933    0.44646    0.06321   1.00
H2       0.96698    0.58643    0.12455   1.00
H2       0.91098    0.42376    0.08744   1.00
H2       1.02943    0.58232    0.10951   1.00
H2       0.72940    0.32211    0.06804   1.00
H2       1.13181    0.77203    0.09872   1.00
H2       0.78286    0.28774    0.07272   1.00
H2       1.14548    0.73177    0.11962   1.00
H2       0.78000    0.34519    0.09019   1.00
H2       1.13060    0.69404    0.09539   1.00
C4       -0.17939   0.19028    0.03843   1.00
C4       -0.15176   0.16366    0.05290   1.00
C3       -0.19895   0.16271    0.01853   1.00
C3       -0.14843   0.10337    0.04925   1.00
C3       -0.18806   0.24667    0.04379   1.00
C3       -0.12634   0.19792    0.07183   1.00
C2       -0.23838   0.24189    0.00949   1.00
C2       -0.09284   0.11164    0.08173   1.00
C3       -0.22787   0.18742    0.00451   1.00
C3       -0.11959   0.07824    0.06316   1.00
C3       -0.21805   0.27007    0.02911   1.00
C3       -0.09703   0.17089    0.08554   1.00
H1       -0.19229   0.12409    0.01341   1.00
H1       -0.16746   0.07506    0.03644   1.00
C5       -0.16668   0.27839    0.06330   1.00
C5       -0.13091   0.25723    0.07672   1.00
H1       -0.24115   0.16515    -0.00957   1.00
H1       -0.11848   0.03466    0.05959   1.00
H1       -0.22546   0.30975    0.03241   1.00
H1       -0.07800   0.19409    0.09909   1.00
C6       -0.18277   0.33316    0.06956   1.00
C6       -0.09734   0.29709    0.09582   1.00
H2       -0.23511   0.31727    0.06527   1.00
H2       -0.04694   0.30248    0.09729   1.00
H2       -0.18484   0.33677    0.08595   1.00
H2       -0.08483   0.34996    0.09456   1.00
C6       -0.13119   0.40530    0.06081   1.00
C6       -0.14148   0.26519    0.11536   1.00
H2       -0.12117   0.40054    0.04484   1.00
H2       -0.16258   0.20996    0.11524   1.00
C6       -0.15094   0.46224    0.06244   1.00
C6       -0.10612   0.29275    0.13637   1.00
H2       -0.08243   0.42323    0.06851   1.00
H2       -0.18558   0.27250    0.11442   1.00
C6       -0.21394   0.44571    0.04917   1.00
C6       -0.04953   0.27460    0.14035   1.00
C6       -0.16533   0.47338    0.08467   1.00
C6       -0.07523   0.37097    0.13809   1.00
C6       -0.09026   0.53022    0.05457   1.00
C6       -0.16054   0.25866    0.15332   1.00
H2       -0.20582   0.43647    0.03343   1.00
H2       -0.06948   0.21978    0.13892   1.00
H2       -0.25960   0.40065    0.05464   1.00
H2       -0.00743   0.30037    0.12970   1.00
H2       -0.22441   0.48780    0.04929   1.00
H2       -0.02847   0.28983    0.15558   1.00
H2       -0.17424   0.51638    0.08582   1.00
H2       -0.05504   0.38895    0.15328   1.00
H2       -0.21053   0.42851    0.09050   1.00
H2       -0.03337   0.39772    0.12740   1.00
H2       -0.12229   0.48370    0.09442   1.00
H2       -0.11372   0.38527    0.13493   1.00
H2       -0.07843   0.52534    0.03882   1.00
H2       -0.18351   0.20326    0.15292   1.00
H2       -0.10180   0.57157    0.05528   1.00
H2       -0.13816   0.27599    0.16834   1.00
H2       -0.04449   0.54538    0.06361   1.00
H2       -0.20127   0.27074    0.15158   1.00
C4       0.49310    0.96016    0.87294   1.00
C4       0.51989    1.01491    0.88724   1.00
C3       0.53273    0.93256    0.86500   1.00
C3       0.58556    1.04103    0.89619   1.00
C3       0.42419    0.93134    0.86612   1.00
C3       0.48015    1.04526    0.89300   1.00
C2       0.43799    0.84722    0.84478   1.00
C2       0.57549    1.12785    0.91540   1.00
C3       0.50604    0.87760    0.85143   1.00
C3       0.61276    1.09598    0.90976   1.00
C3       0.39883    0.87517    0.85238   1.00
C3       0.50987    1.10137    0.90678   1.00
H1       0.58269    0.95180    0.86863   1.00
H1       0.61583    1.02067    0.89334   1.00
C5       0.38268    0.95883    0.87292   1.00
C5       0.41255    1.01930    0.88515   1.00
H1       0.53718    0.85987    0.84633   1.00
H1       0.66055    1.11260    0.91563   1.00
H1       0.34995    0.85301    0.84730   1.00
H1       0.48338    1.12458    0.91114   1.00
C6       0.30784    0.92331    0.86730   1.00
C6       0.37397    1.05642    0.88967   1.00
H2       0.28604    0.86849    0.86919   1.00
H2       0.40835    1.11106    0.88790   1.00
H2       0.27836    0.93412    0.87816   1.00
H2       0.33576    1.04656    0.87816   1.00
C6       0.29470    0.94169    0.84547   1.00
C6       0.33889    1.03872    0.91103   1.00
H2       0.33121    0.94052    0.83486   1.00
H2       0.37428    1.03887    0.92233   1.00
C6       0.22162    0.89707    0.83632   1.00
C6       0.31068    1.08476    0.91920   1.00
H2       0.30651    0.99474    0.84570   1.00
H2       0.29682    0.98609    0.91050   1.00
C6       0.20494    0.82273    0.83241   1.00
C6       0.36892    1.15851    0.92351   1.00
C6       0.16611    0.89628    0.85024   1.00
C6       0.25910    1.08705    0.90424   1.00
C6       0.21865    0.92805    0.81559   1.00
C6       0.27303    1.05435    0.93953   1.00
H2       0.24382    0.82158    0.82289   1.00
H2       0.40682    1.15858    0.93377   1.00
H2       0.20201    0.79643    0.84653   1.00
H2       0.39497    1.18449    0.90962   1.00
H2       0.15594    0.79334    0.82475   1.00
H2       0.34923    1.18887    0.93051   1.00
H2       0.11600    0.86914    0.84307   1.00
H2       0.23611    1.11522    0.91071   1.00
H2       0.16284    0.87071    0.86455   1.00
H2       0.28408    1.11231    0.89014   1.00
H2       0.17742    0.94809    0.85358   1.00
H2       0.21828    1.03566    0.90062   1.00
H2       0.25648    0.92913    0.80509   1.00
H2       0.30746    1.05225    0.95073   1.00
H2       0.16861    0.89832    0.80852   1.00
H2       0.25274    1.08507    0.94593   1.00
H2       0.22866    0.98017    0.81740   1.00
H2       0.23037    1.00269    0.93741   1.00
C4       0.03055    0.52245    0.86968   1.00
C4       -0.02706   0.49516    0.88294   1.00
C3       0.08411    0.50720    0.87191   1.00
C3       -0.03873   0.44526    0.89797   1.00
C3       0.03571    0.56686    0.85350   1.00
C3       -0.07544   0.51798    0.88130   1.00
C2       0.14543    0.57492    0.84228   1.00
C2       -0.14175   0.44239    0.91042   1.00
C3       0.13967    0.53229    0.85859   1.00
C3       -0.09409   0.41985    0.91138   1.00
C3       0.09293    0.59103    0.84020   1.00
C3       -0.13092   0.49111    0.89531   1.00
H1       0.08510    0.47783    0.88343   1.00
H1       -0.00781   0.42499    0.89961   1.00
C5       -0.01516   0.58634    0.85100   1.00
C5       -0.06797   0.56600    0.86590   1.00
H1       0.17647    0.51918    0.86098   1.00
H1       -0.09950   0.38413    0.92193   1.00
H1       0.09814    0.62233    0.82844   1.00
H1       -0.16612   0.50644    0.89471   1.00
C6       -0.01292   0.62738    0.83259   1.00
C6       -0.11533   0.59513    0.86572   1.00
H2       -0.00179   0.60643    0.81920   1.00
H2       -0.12145   0.60830    0.88117   1.00
H2       -0.06303   0.61983    0.82893   1.00
H2       -0.09214   0.64456    0.85828   1.00
C6       0.03843    0.70568    0.83491   1.00
C6       -0.18586   0.54667    0.85549   1.00
H2       0.08619    0.71343    0.84143   1.00
H2       -0.20501   0.49444    0.86076   1.00
C6       0.05633    0.75086    0.81540   1.00
C6       -0.24405   0.56416    0.85839   1.00
H2       0.01757    0.72560    0.84620   1.00
H2       -0.17703   0.54547    0.83924   1.00
C6       0.09625    0.73302    0.79978   1.00
C6       -0.26744   0.55628    0.88083   1.00
C6       -0.00843   0.74394    0.80517   1.00
C6       -0.22189   0.63734    0.85106   1.00
C6       0.10267    0.82665    0.82157   1.00
C6       -0.30655   0.51349    0.84556   1.00
H2       0.14174    0.73635    0.80663   1.00
H2       -0.28238   0.50545    0.88657   1.00
H2       0.06508    0.68161    0.79383   1.00
H2       -0.22707   0.59339    0.89057   1.00
H2       0.11259    0.76786    0.78688   1.00
H2       -0.31110   0.56394    0.88247   1.00
H2       0.00490    0.77922    0.79245   1.00
H2       -0.26430   0.64728    0.85179   1.00
H2       -0.04069   0.69255    0.79929   1.00
H2       -0.18099   0.67529    0.86051   1.00
H2       -0.03823   0.75484    0.81597   1.00
H2       -0.20382   0.64469    0.83542   1.00
H2       0.14959    0.83450    0.82870   1.00
H2       -0.32473   0.46095    0.85028   1.00
H2       0.11696    0.86028    0.80840   1.00
H2       -0.34881   0.52338    0.84720   1.00
H2       0.07676    0.84275    0.83230   1.00
H2       -0.29362   0.51760    0.82948   1.00
C4       0.47666    0.50652    0.86942   1.00
C4       0.50341    0.47577    0.88272   1.00
C3       0.50198    0.57816    0.86914   1.00
C3       0.56187    0.51496    0.89509   1.00
C3       0.42244    0.46482    0.85581   1.00
C3       0.47119    0.40310    0.88386   1.00
C2       0.42489    0.56915    0.84186   1.00
C2       0.55557    0.41364    0.91034   1.00
C3       0.47720    0.60867    0.85572   1.00
C3       0.58705    0.48498    0.90856   1.00
C3       0.39890    0.49793    0.84232   1.00
C3       0.49819    0.37457    0.89785   1.00
H1       0.53891    0.61078    0.87881   1.00
H1       0.58876    0.56677    0.89462   1.00
C5       0.39293    0.39211    0.85599   1.00
C5       0.41389    0.36097    0.87115   1.00
H1       0.49780    0.66064    0.85621   1.00
H1       0.62924    0.51608    0.91713   1.00
H1       0.36075    0.47006    0.83232   1.00
H1       0.47639    0.32312    0.89920   1.00
C6       0.34071    0.34933    0.84008   1.00
C6       0.37589    0.28438    0.87405   1.00
H2       0.35779    0.37394    0.82535   1.00
H2       0.36881    0.27301    0.89023   1.00
H2       0.33926    0.30119    0.83756   1.00
H2       0.32348    0.26126    0.86880   1.00
C6       0.26698    0.33463    0.84522   1.00
C6       0.41125    0.24831    0.86338   1.00
H2       0.26929    0.38138    0.85063   1.00
H2       0.46614    0.27725    0.86622   1.00
C6       0.21219    0.30428    0.82797   1.00
C6       0.38545    0.17206    0.86900   1.00
H2       0.24845    0.29964    0.85811   1.00
H2       0.40570    0.25145    0.84701   1.00
C6       0.22922    0.35569    0.81034   1.00
C6       0.40149    0.16440    0.89140   1.00
C6       0.20458    0.23704    0.81946   1.00
C6       0.30787    0.12658    0.86522   1.00
C6       0.14228    0.28824    0.83693   1.00
C6       0.42304    0.14534    0.85538   1.00
H2       0.23602    0.40414    0.81591   1.00
H2       0.45577    0.19676    0.89465   1.00
H2       0.27580    0.36606    0.80253   1.00
H2       0.37330    0.17836    0.90187   1.00
H2       0.18843    0.33594    0.79909   1.00
H2       0.38762    0.11184    0.89477   1.00
H2       0.16296    0.21378    0.80850   1.00
H2       0.29133    0.07290    0.86779   1.00
H2       0.25099    0.24625    0.81174   1.00
H2       0.27872    0.14022    0.87543   1.00
H2       0.19398    0.20044    0.83164   1.00
H2       0.29499    0.13213    0.84965   1.00
H2       0.14467    0.33429    0.84297   1.00
H2       0.47814    0.17535    0.85763   1.00
H2       0.10234    0.26729    0.82540   1.00
H2       0.40704    0.09227    0.85884   1.00
H2       0.12676    0.25108    0.84920   1.00
H2       0.41260    0.14814    0.83936   1.00
C4       0.29361    0.15751    0.29374   1.00
C4       0.34884    0.18411    0.27961   1.00
C3       0.25334    0.18880    0.29714   1.00
C3       0.36309    0.23944    0.26638   1.00
C3       0.27738    0.09741    0.30507   1.00
C3       0.39192    0.15482    0.27843   1.00
C2       0.17982    0.10187    0.32159   1.00
C2       0.46252    0.24014    0.25171   1.00
C3       0.19794    0.16174    0.31055   1.00
C3       0.41836    0.26691    0.25292   1.00
C3       0.22033    0.07128    0.31850   1.00
C3       0.44790    0.18454    0.26459   1.00
H1       0.26316    0.23281    0.29014   1.00
H1       0.33344    0.26142    0.26588   1.00
C5       0.31786    0.06526    0.30294   1.00
C5       0.37841    0.09721    0.29075   1.00
H1       0.17075    0.18658    0.31226   1.00
H1       0.42605    0.30699    0.24384   1.00
H1       0.20692    0.02839    0.32671   1.00
H1       0.47994    0.16543    0.26342   1.00
C6       0.29579    -0.00221   0.31336   1.00
C6       0.42852    0.07139    0.29093   1.00
H2       0.24101    -0.03525   0.31137   1.00
H2       0.48019    0.11477    0.29173   1.00
H2       0.31561    -0.03115   0.30568   1.00
H2       0.42542    0.04464    0.30493   1.00
C6       0.31672    0.00567    0.33629   1.00
C6       0.41951    0.02383    0.27250   1.00
H2       0.30585    0.04270    0.34348   1.00
H2       0.41261    0.04596    0.25859   1.00
C6       0.28391    -0.06030   0.34966   1.00
C6       0.47735    0.00648    0.26859   1.00
H2       0.37210    0.02856    0.33698   1.00
H2       0.37160    -0.02395   0.27464   1.00
C6       0.20596    -0.09015   0.35217   1.00
C6       0.54503    0.07053    0.26220   1.00
C6       0.29741    -0.11579   0.34077   1.00
C6       0.49032    -0.02612   0.28748   1.00
C6       0.31639    -0.04153   0.37112   1.00
C6       0.45491    -0.04570   0.25092   1.00
H2       0.19466    -0.05185   0.35811   1.00
H2       0.53735    0.09539    0.24908   1.00
H2       0.17929    -0.10835   0.33778   1.00
H2       0.56599    0.10774    0.27443   1.00
H2       0.18438    -0.13326   0.36263   1.00
H2       0.58359    0.05712    0.25815   1.00
H2       0.27860    -0.15958   0.35093   1.00
H2       0.52720    -0.04246   0.28415   1.00
H2       0.27165    -0.13423   0.32624   1.00
H2       0.51072    0.01017    0.29998   1.00
H2       0.35187    -0.09565   0.33845   1.00
H2       0.44315    -0.07053   0.29256   1.00
H2       0.30768    -0.00292   0.37819   1.00
H2       0.44576    -0.02487   0.23711   1.00
H2       0.29474    -0.08598   0.38109   1.00
H2       0.49395    -0.05911   0.24752   1.00
H2       0.37134    -0.02140   0.37040   1.00
H2       0.40803    -0.09269   0.25469   1.00
C4       0.86959    0.70530    0.29419   1.00
C4       0.84308    0.65107    0.27971   1.00
C3       0.91492    0.71057    0.30999   1.00
C3       0.86551    0.60251    0.27871   1.00
C3       0.85051    0.75662    0.29307   1.00
C3       0.79224    0.64443    0.26557   1.00
C2       0.92587    0.81676    0.32287   1.00
C2       0.78711    0.53942    0.25111   1.00
C3       0.94253    0.76472    0.32384   1.00
C3       0.83822    0.54815    0.26492   1.00
C3       0.88006    0.81113    0.30740   1.00
C3       0.76548    0.58813    0.25185   1.00
H1       0.92904    0.67488    0.31215   1.00
H1       0.90301    0.60521    0.28782   1.00
C5       0.80284    0.75251    0.27803   1.00
C5       0.76969    0.69340    0.26528   1.00
H1       0.97515    0.76572    0.33484   1.00
H1       0.85639    0.51470    0.26502   1.00
H1       0.86811    0.84883    0.30701   1.00
H1       0.72894    0.58142    0.24165   1.00
C6       0.78873    0.81083    0.27565   1.00
C6       0.71082    0.68171    0.25173   1.00
H2       0.83680    0.85893    0.27633   1.00
H2       0.67084    0.62845    0.25281   1.00
H2       0.77117    0.81266    0.26044   1.00
H2       0.68481    0.70772    0.25743   1.00
C6       0.73588    0.80863    0.29142   1.00
C6       0.73263    0.70374    0.22918   1.00
H2       0.74761    0.79686    0.30646   1.00
H2       0.76717    0.68595    0.22424   1.00
C6       0.72869    0.87366    0.29340   1.00
C6       0.67464    0.68037    0.21297   1.00
H2       0.68598    0.76546    0.28754   1.00
H2       0.76306    0.75936    0.22882   1.00
C6       0.79446    0.93511    0.30204   1.00
C6       0.63562    0.60182    0.21017   1.00
C6       0.71111    0.89395    0.27279   1.00
C6       0.62331    0.70410    0.21854   1.00
C6       0.66973    0.85785    0.30841   1.00
C6       0.70747    0.71287    0.19226   1.00
H2       0.80888    0.92206    0.31645   1.00
H2       0.67061    0.58330    0.20655   1.00
H2       0.83720    0.95169    0.29163   1.00
H2       0.60776    0.57573    0.22383   1.00
H2       0.78734    0.97871    0.30469   1.00
H2       0.59854    0.58646    0.19788   1.00
H2       0.70142    0.93628    0.27459   1.00
H2       0.58596    0.69183    0.20647   1.00
H2       0.75306    0.91010    0.26207   1.00
H2       0.59533    0.67903    0.23231   1.00
H2       0.66577    0.85110    0.26616   1.00
H2       0.64966    0.75909    0.22102   1.00
H2       0.67996    0.84389    0.32331   1.00
H2       0.74373    0.69713    0.18751   1.00
H2       0.66300    0.90199    0.31040   1.00
H2       0.66894    0.69765    0.18039   1.00
H2       0.62151    0.81571    0.30293   1.00
H2       0.73468    0.76844    0.19315   1.00
C4       0.83610    0.13062    0.29413   1.00
C4       0.80849    0.15726    0.27966   1.00
C3       0.79527    0.08280    0.30933   1.00
C3       0.73718    0.13269    0.27801   1.00
C3       0.90718    0.15213    0.29362   1.00
C3       0.85313    0.21044    0.26618   1.00
C2       0.89122    0.07417    0.32276   1.00
C2       0.75286    0.21338    0.25108   1.00
C3       0.82180    0.05511    0.32316   1.00
C3       0.71012    0.16004    0.26425   1.00
C3       0.93211    0.12242    0.30790   1.00
C3       0.82355    0.23716    0.25245   1.00
H1       0.74486    0.06681    0.31105   1.00
H1       0.70216    0.09354    0.28662   1.00
C5       0.95139    0.20228    0.27921   1.00
C5       0.92511    0.23529    0.26653   1.00
H1       0.78961    0.02063    0.33370   1.00
H1       0.65825    0.14026    0.26386   1.00
H1       0.98225    0.13607    0.30793   1.00
H1       0.85368    0.27531    0.24272   1.00
C6       1.02486    0.21915    0.27742   1.00
C6       0.97241    0.29638    0.25372   1.00
H2       1.02668    0.17197    0.27778   1.00
H2       0.95720    0.33492    0.25499   1.00
H2       1.04565    0.23890    0.26248   1.00
H2       1.02371    0.32317    0.25995   1.00
C6       1.07260    0.27098    0.29390   1.00
C6       0.97604    0.27770    0.23104   1.00
H2       1.04741    0.25681    0.30868   1.00
H2       0.92465    0.24246    0.22551   1.00
C6       1.14563    0.28055    0.29642   1.00
C6       1.01087    0.33777    0.21548   1.00
H2       1.07795    0.32059    0.29041   1.00
H2       1.00291    0.24890    0.23064   1.00
C6       1.14280    0.21491    0.30457   1.00
C6       0.96943    0.37483    0.21269   1.00
C6       1.18585    0.30167    0.27620   1.00
C6       1.08469    0.39026    0.22192   1.00
C6       1.18557    0.33817    0.31211   1.00
C6       1.01418    0.30806    0.19456   1.00
H2       1.11375    0.19802    0.31868   1.00
H2       0.91671    0.33894    0.20846   1.00
H2       1.11902    0.17328    0.29369   1.00
H2       0.96860    0.40057    0.22654   1.00
H2       1.19389    0.22351    0.30760   1.00
H2       0.99150    0.41345    0.20081   1.00
H2       1.23825    0.31293    0.27842   1.00
H2       1.11015    0.42925    0.21028   1.00
H2       1.16243    0.26086    0.26502   1.00
H2       1.08499    0.41614    0.23589   1.00
H2       1.18738    0.34697    0.26991   1.00
H2       1.11459    0.36524    0.22440   1.00
H2       1.15964    0.32545    0.32677   1.00
H2       0.96317    0.27111    0.18920   1.00
H2       1.23689    0.34647    0.31450   1.00
H2       1.03776    0.34811    0.18312   1.00
H2       1.19050    0.38630    0.30702   1.00
H2       1.04402    0.28238    0.19545   1.00
C4       0.83368    0.69608    0.79745   1.00
C4       0.80528    0.63874    0.78408   1.00
C3       0.80100    0.73473    0.80144   1.00
C3       0.73905    0.61173    0.77544   1.00
C3       0.89722    0.71633    0.80734   1.00
C3       0.84381    0.60648    0.77900   1.00
C2       0.88940    0.80997    0.82527   1.00
C2       0.74911    0.52490    0.75624   1.00
C3       0.82773    0.78974    0.81499   1.00
C3       0.71184    0.55678    0.76187   1.00
C3       0.92252    0.77241    0.82111   1.00
C3       0.81442    0.55088    0.76503   1.00
H1       0.75689    0.72478    0.79448   1.00
H1       0.70781    0.63055    0.77885   1.00
C5       0.93391    0.68118    0.80328   1.00
C5       0.90961    0.62957    0.78788   1.00
H1       0.80155    0.81537    0.81726   1.00
H1       0.66388    0.53988    0.75610   1.00
H1       0.96729    0.78803    0.82853   1.00
H1       0.84045    0.52693    0.76094   1.00
C6       0.99726    0.69842    0.81544   1.00
C6       0.95280    0.59978    0.78074   1.00
H2       0.98777    0.70344    0.83138   1.00
H2       0.95048    0.59616    0.76424   1.00
H2       1.00687    0.65597    0.81591   1.00
H2       1.00679    0.63475    0.78326   1.00
C6       1.06275    0.76334    0.80746   1.00
C6       0.93261    0.52953    0.79085   1.00
H2       1.05072    0.80346    0.80413   1.00
H2       0.87710    0.49737    0.79100   1.00
C6       1.12754    0.79476    0.82133   1.00
C6       0.96297    0.48691    0.78146   1.00
H2       1.07617    0.75044    0.79285   1.00
H2       0.94762    0.53909    0.80679   1.00
C6       1.11622    0.82454    0.84119   1.00
C6       0.93525    0.46173    0.75976   1.00
C6       1.14919    0.74168    0.82669   1.00
C6       1.04192    0.52816    0.78083   1.00
C6       1.18733    0.85421    0.80969   1.00
C6       0.94134    0.42297    0.79489   1.00
H2       1.09978    0.86142    0.83792   1.00
H2       0.87956    0.43334    0.75963   1.00
H2       1.07760    0.78473    0.85074   1.00
H2       0.95215    0.50410    0.74919   1.00
H2       1.16304    0.85047    0.85009   1.00
H2       0.95295    0.42821    0.75390   1.00
H2       1.19707    0.76526    0.83514   1.00
H2       1.06271    0.49649    0.77562   1.00
H2       1.11082    0.70097    0.83610   1.00
H2       1.05989    0.57126    0.77046   1.00
H2       1.15611    0.71887    0.81298   1.00
H2       1.06271    0.54771    0.79585   1.00
H2       1.17492    0.89357    0.80572   1.00
H2       0.88588    0.39160    0.79567   1.00
H2       1.23374    0.87816    0.81884   1.00
H2       0.96099    0.39125    0.78886   1.00
H2       1.19872    0.83614    0.79570   1.00
H2       0.96061    0.43743    0.81033   1.00
C4       0.29525    0.12993    0.79439   1.00
C4       0.35151    0.15465    0.78067   1.00
C3       0.23522    0.13292    0.78994   1.00
C3       0.34885    0.17741    0.76072   1.00
C3       0.29828    0.10104    0.81338   1.00
C3       0.41315    0.15696    0.78686   1.00
C2       0.18009    0.07692    0.82170   1.00
C2       0.46638    0.20777    0.75325   1.00
C3       0.17920    0.10696    0.80310   1.00
C3       0.40457    0.20350    0.74744   1.00
C3       0.23999    0.07483    0.82631   1.00
C3       0.46885    0.18424    0.77292   1.00
H1       0.23023    0.15470    0.77705   1.00
H1       0.30610    0.17525    0.75501   1.00
C5       0.35848    0.09922    0.81908   1.00
C5       0.41790    0.13209    0.80645   1.00
H1       0.13731    0.11042    0.79897   1.00
H1       0.39949    0.21934    0.73328   1.00
H1       0.24003    0.05348    0.83988   1.00
H1       0.51367    0.18715    0.77683   1.00
C6       0.35827    0.06205    0.83819   1.00
C6       0.48561    0.14153    0.81362   1.00
H2       0.31055    0.01365    0.83902   1.00
H2       0.52585    0.19300    0.80989   1.00
H2       0.39548    0.04515    0.83743   1.00
H2       0.48869    0.14186    0.83008   1.00
C6       0.37116    0.10546    0.85793   1.00
C6       0.50143    0.08632    0.80507   1.00
H2       0.34089    0.13083    0.85741   1.00
H2       0.48890    0.07853    0.78892   1.00
C6       0.35715    0.06764    0.87877   1.00
C6       0.57573    0.09937    0.80770   1.00
H2       0.42425    0.14660    0.85771   1.00
H2       0.46635    0.03777    0.81230   1.00
C6       0.28028    0.01547    0.88171   1.00
C6       0.62786    0.16170    0.79513   1.00
C6       0.39872    0.03062    0.88104   1.00
C6       0.59790    0.11019    0.83025   1.00
C6       0.37907    0.12120    0.89604   1.00
C6       0.57798    0.03587    0.79985   1.00
H2       0.24940    0.03981    0.87987   1.00
H2       0.61304    0.15614    0.77917   1.00
H2       0.26237    -0.02610   0.87081   1.00
H2       0.63201    0.20893    0.80067   1.00
H2       0.27039    -0.00716   0.89683   1.00
H2       0.67864    0.16752    0.79594   1.00
H2       0.39237    0.00857    0.89616   1.00
H2       0.64777    0.11436    0.83208   1.00
H2       0.38199    -0.01081   0.87011   1.00
H2       0.60171    0.15693    0.83616   1.00
H2       0.45292    0.06595    0.87862   1.00
H2       0.56127    0.06765    0.83951   1.00
H2       0.35064    0.14838    0.89526   1.00
H2       0.56341    0.02636    0.78388   1.00
H2       0.36983    0.09714    0.91094   1.00
H2       0.62909    0.04273    0.80124   1.00
H2       0.43330    0.15875    0.89503   1.00
H2       0.54319    -0.00967   0.80842   1.00
C4       0.86955    0.16422    0.79418   1.00
C4       0.84502    0.19567    0.78036   1.00
C3       0.85811    0.09697    0.79117   1.00
C3       0.81370    0.16507    0.76154   1.00
C3       0.90697    0.20060    0.81178   1.00
C3       0.85174    0.26026    0.78528   1.00
C2       0.92200    0.10180    0.82159   1.00
C2       0.79238    0.25764    0.75285   1.00
C3       0.88376    0.06674    0.80438   1.00
C3       0.78784    0.19483    0.74823   1.00
C3       0.93255    0.16813    0.82479   1.00
C3       0.82439    0.28868    0.77136   1.00
H1       0.83011    0.06718    0.77938   1.00
H1       0.80911    0.12032    0.75671   1.00
C5       0.91767    0.26735    0.81607   1.00
C5       0.88536    0.29490    0.80360   1.00
H1       0.87397    0.01819    0.80132   1.00
H1       0.76558    0.17005    0.73494   1.00
H1       0.95979    0.19255    0.83738   1.00
H1       0.82777    0.33430    0.77439   1.00
C6       0.96343    0.30808    0.83352   1.00
C6       0.88566    0.35955    0.80965   1.00
H2       1.00899    0.30331    0.83337   1.00
H2       0.83500    0.35264    0.80719   1.00
H2       0.98497    0.36258    0.83126   1.00
H2       0.89162    0.36796    0.82594   1.00
C6       0.92665    0.28779    0.85462   1.00
C6       0.94204    0.42466    0.79855   1.00
H2       0.89656    0.23225    0.85580   1.00
H2       0.94292    0.41339    0.78246   1.00
C6       0.97218    0.31521    0.87406   1.00
C6       0.93765    0.49136    0.80010   1.00
H2       0.88949    0.30514    0.85495   1.00
H2       0.99149    0.43543    0.80449   1.00
C6       1.01919    0.28408    0.87648   1.00
C6       0.87376    0.48387    0.78906   1.00
C6       1.01633    0.39402    0.87389   1.00
C6       0.93699    0.51206    0.82245   1.00
C6       0.92490    0.29414    0.89293   1.00
C6       1.00143    0.55017    0.78964   1.00
H2       0.98963    0.22842    0.87633   1.00
H2       0.87213    0.46818    0.77330   1.00
H2       1.05669    0.30033    0.86434   1.00
H2       0.82687    0.44614    0.79641   1.00
H2       1.04721    0.29978    0.89077   1.00
H2       0.87363    0.53200    0.78900   1.00
H2       1.04416    0.41291    0.88813   1.00
H2       0.93886    0.56110    0.82337   1.00
H2       1.05381    0.41137    0.86169   1.00
H2       0.89070    0.47453    0.83016   1.00
H2       0.98458    0.41721    0.87177   1.00
H2       0.98073    0.51629    0.83069   1.00
H2       0.89303    0.23876    0.89389   1.00
H2       1.00395    0.53841    0.77371   1.00
H2       0.95442    0.31179    0.90694   1.00
H2       1.00047    0.59787    0.79021   1.00
H2       0.89133    0.31576    0.89231   1.00
H2       1.04825    0.55889    0.79703   1.00
C4       0.02975    0.50618    0.36938   1.00
C4       -0.02642   0.47929    0.38318   1.00
C3       0.03732    0.46514    0.35438   1.00
C3       -0.08248   0.41150    0.38158   1.00
C3       0.08086    0.57668    0.37042   1.00
C3       -0.02748   0.52111    0.39927   1.00
C2       0.14155    0.56122    0.34082   1.00
C2       -0.13844   0.42376    0.41166   1.00
C3       0.09127    0.49176    0.34045   1.00
C3       -0.13666   0.38436    0.39542   1.00
C3       0.13479    0.60188    0.35589   1.00
C3       -0.08342   0.49140    0.41311   1.00
H1       0.00427    0.41421    0.35314   1.00
H1       -0.08638   0.37952    0.37017   1.00
C5       0.07754    0.61989    0.38574   1.00
C5       0.02609    0.59066    0.40115   1.00
H1       0.09368    0.45954    0.32995   1.00
H1       -0.17543   0.33501    0.39348   1.00
H1       0.17183    0.65181    0.35606   1.00
H1       -0.08575   0.51937    0.42483   1.00
C6       0.12780    0.69577    0.38532   1.00
C6       0.02806    0.63200    0.41945   1.00
H2       0.13315    0.71407    0.36977   1.00
H2       0.01692    0.60070    0.43302   1.00
H2       0.10757    0.72459    0.39285   1.00
H2       0.07946    0.67315    0.42259   1.00
C6       0.19857    0.71522    0.39492   1.00
C6       -0.02050   0.66240    0.41745   1.00
H2       0.21474    0.67977    0.38960   1.00
H2       -0.06978   0.62353    0.41144   1.00
C6       0.25896    0.78942    0.39133   1.00
C6       -0.03424   0.69290    0.43701   1.00
H2       0.19120    0.70664    0.41126   1.00
H2       0.00081    0.70226    0.40589   1.00
C6       0.28011    0.80233    0.36867   1.00
C6       -0.07453   0.63702    0.45312   1.00
C6       0.24110    0.84360    0.39868   1.00
C6       0.03294    0.74939    0.44655   1.00
C6       0.32165    0.79901    0.40363   1.00
C6       -0.07822   0.72529    0.43112   1.00
H2       0.29198    0.76421    0.36293   1.00
H2       -0.12176   0.59578    0.44676   1.00
H2       0.23971    0.80054    0.35927   1.00
H2       -0.04478   0.61491    0.45888   1.00
H2       0.32517    0.85244    0.36654   1.00
H2       -0.08795   0.65791    0.46609   1.00
H2       0.28511    0.89491    0.39745   1.00
H2       0.02260    0.77364    0.45930   1.00
H2       0.20024    0.84218    0.38957   1.00
H2       0.06381    0.72837    0.45224   1.00
H2       0.22466    0.83480    0.41448   1.00
H2       0.06298    0.78869    0.43540   1.00
H2       0.33685    0.76233    0.39887   1.00
H2       -0.12670   0.68728    0.42449   1.00
H2       0.36541    0.85004    0.40150   1.00
H2       -0.08958   0.74694    0.44434   1.00
H2       0.31034    0.79189    0.41983   1.00
H2       -0.05188   0.76615    0.42006   1.00
C4       0.47689    0.96999    0.36948   1.00
C4       0.50612    1.02600    0.38333   1.00
C3       0.43284    0.96556    0.35339   1.00
C3       0.49919    1.08474    0.38081   1.00
C3       0.49165    0.91583    0.37158   1.00
C3       0.54398    1.02412    0.40044   1.00
C2       0.42044    0.85841    0.34084   1.00
C2       0.56235    1.13782    0.41188   1.00
C3       0.40568    0.91171    0.33943   1.00
C3       0.52610    1.13885    0.39468   1.00
C3       0.46328    0.86210    0.35698   1.00
C3       0.57025    1.08010    0.41427   1.00
H1       0.41828    1.00095    0.35133   1.00
H1       0.47490    1.09072    0.36869   1.00
C5       0.53335    0.91602    0.38798   1.00
C5       0.55511    0.96766    0.40332   1.00
H1       0.37446    0.91162    0.32812   1.00
H1       0.51911    1.17964    0.39204   1.00
H1       0.47298    0.82292    0.35789   1.00
H1       0.59704    1.08041    0.42668   1.00
C6       0.55447    0.86230    0.38877   1.00
C6       0.58892    0.96289    0.42258   1.00
H2       0.56980    0.85583    0.37364   1.00
H2       0.56750    0.97584    0.43548   1.00
H2       0.60142    0.87977    0.39728   1.00
H2       0.57475    0.91050    0.42604   1.00
C6       0.49810    0.79279    0.39787   1.00
C6       0.66864    1.00752    0.42201   1.00
H2       0.44850    0.77970    0.39145   1.00
H2       0.68343    1.05770    0.41571   1.00
C6       0.50781    0.72942    0.39531   1.00
C6       0.70798    1.01865    0.44246   1.00
H2       0.49402    0.80052    0.41405   1.00
H2       0.68738    0.98418    0.41117   1.00
C6       0.50318    0.70811    0.37275   1.00
C6       0.69248    1.06140    0.45768   1.00
C6       0.57673    0.74284    0.40424   1.00
C6       0.69092    0.95001    0.45247   1.00
C6       0.44975    0.66840    0.40696   1.00
C6       0.78571    1.05873    0.43799   1.00
H2       0.45553    0.69934    0.36591   1.00
H2       0.70296    1.10977    0.45095   1.00
H2       0.54512    0.74713    0.36387   1.00
H2       0.63935    1.03431    0.46247   1.00
H2       0.50526    0.66120    0.37125   1.00
H2       0.72367    1.07289    0.47132   1.00
H2       0.58086    0.69686    0.40369   1.00
H2       0.72219    0.95829    0.46593   1.00
H2       0.61945    0.78228    0.39567   1.00
H2       0.63769    0.92176    0.45720   1.00
H2       0.58191    0.75932    0.42000   1.00
H2       0.70003    0.91831    0.44192   1.00
H2       0.39984    0.65632    0.40109   1.00
H2       0.80063    1.10808    0.43109   1.00
H2       0.45407    0.62267    0.40552   1.00
H2       0.81545    1.06818    0.45187   1.00
H2       0.45116    0.67981    0.42310   1.00
H2       0.80011    1.03048    0.42763   1.00
C4       0.49313    0.52312    0.36947   1.00
C4       0.51992    0.49389    0.38333   1.00
C3       0.53281    0.56733    0.35342   1.00
C3       0.58566    0.50098    0.38083   1.00
C3       0.42415    0.50821    0.37154   1.00
C3       0.48010    0.45586    0.40040   1.00
C2       0.43801    0.57959    0.34084   1.00
C2       0.57551    0.43766    0.41188   1.00
C3       0.50611    0.59449    0.33946   1.00
C3       0.61286    0.47407    0.39470   1.00
C3       0.39880    0.53659    0.35694   1.00
C3       0.50982    0.42960    0.41423   1.00
H1       0.58280    0.58200    0.35139   1.00
H1       0.61599    0.52539    0.36873   1.00
C5       0.38258    0.46634    0.38791   1.00
C5       0.41243    0.44457    0.40325   1.00
H1       0.53730    0.62583    0.32818   1.00
H1       0.66070    0.48118    0.39208   1.00
H1       0.34988    0.52678    0.35783   1.00
H1       0.48327    0.40269    0.42662   1.00
C6       0.30770    0.44508    0.38866   1.00
C6       0.37376    0.41058    0.42248   1.00
H2       0.28601    0.42982    0.37352   1.00
H2       0.40804    0.43196    0.43541   1.00
H2       0.27823    0.39805    0.39714   1.00
H2       0.33545    0.42462    0.42593   1.00
C6       0.29435    0.50129    0.39777   1.00
C6       0.33882    0.33087    0.42186   1.00
H2       0.33083    0.55096    0.39140   1.00
H2       0.37433    0.31623    0.41557   1.00
C6       0.22123    0.49144    0.39519   1.00
C6       0.31053    0.29137    0.44229   1.00
H2       0.30606    0.50527    0.41396   1.00
H2       0.29681    0.31214    0.41100   1.00
C6       0.20468    0.49618    0.37262   1.00
C6       0.36870    0.30688    0.45754   1.00
C6       0.16576    0.42241    0.40406   1.00
C6       0.25878    0.30822    0.45228   1.00
C6       0.21805    0.54935    0.40686   1.00
C6       0.27304    0.21367    0.43777   1.00
H2       0.24354    0.54392    0.36581   1.00
H2       0.40671    0.29655    0.45082   1.00
H2       0.20190    0.45434    0.36373   1.00
H2       0.39462    0.35998    0.46236   1.00
H2       0.15564    0.49400    0.37111   1.00
H2       0.34896    0.27559    0.47115   1.00
H2       0.11560    0.41817    0.40350   1.00
H2       0.23574    0.27685    0.46572   1.00
H2       0.16263    0.37979    0.39548   1.00
H2       0.28364    0.36142    0.45704   1.00
H2       0.17698    0.41715    0.41983   1.00
H2       0.21801    0.29911    0.44171   1.00
H2       0.25584    0.59932    0.40103   1.00
H2       0.30759    0.19890    0.43088   1.00
H2       0.16797    0.54492    0.40540   1.00
H2       0.25270    0.18383    0.45163   1.00
H2       0.22796    0.54785    0.42300   1.00
H2       0.23044    0.19926    0.42738   1.00
C4       0.15927    0.30312    0.20289   1.00
C4       0.18979    0.36070    0.21617   1.00
C3       0.08886    0.25273    0.20403   1.00
C3       0.15081    0.37572    0.23002   1.00
C3       0.19995    0.29474    0.18784   1.00
C3       0.26199    0.40557    0.21575   1.00
C2       0.09674    0.18845    0.17542   1.00
C2       0.25183    0.47521    0.24371   1.00
C3       0.05836    0.19729    0.19067   1.00
C3       0.18079    0.43100    0.24346   1.00
C3       0.16685    0.23777    0.17445   1.00
C3       0.29057    0.46107    0.22976   1.00
H1       0.05724    0.25405    0.21474   1.00
H1       0.09909    0.34746    0.23074   1.00
C5       0.27171    0.34224    0.18651   1.00
C5       0.30359    0.39471    0.20154   1.00
H1       0.00727    0.16286    0.19223   1.00
H1       0.14988    0.43892    0.25314   1.00
H1       0.19397    0.23034    0.16346   1.00
H1       0.34175    0.49382    0.23001   1.00
C6       0.31264    0.33687    0.16918   1.00
C6       0.38048    0.43817    0.20272   1.00
H2       0.28388    0.32749    0.15514   1.00
H2       0.39617    0.44332    0.21855   1.00
H2       0.35793    0.38557    0.16599   1.00
H2       0.40552    0.41220    0.19628   1.00
C6       0.33422    0.28186    0.17284   1.00
C6       0.40900    0.50937    0.19219   1.00
H2       0.29096    0.23545    0.17892   1.00
H2       0.37757    0.53163    0.19636   1.00
C6       0.36320    0.26112    0.15431   1.00
C6       0.48526    0.56413    0.19630   1.00
H2       0.37250    0.30065    0.18488   1.00
H2       0.40217    0.50075    0.17585   1.00
C6       0.30815    0.22378    0.13775   1.00
C6       0.49712    0.58750    0.21878   1.00
C6       0.42560    0.32378    0.14478   1.00
C6       0.53411    0.53743    0.19058   1.00
C6       0.38673    0.21116    0.16182   1.00
C6       0.50392    0.62773    0.18301   1.00
H2       0.26292    0.17988    0.14408   1.00
H2       0.46258    0.60562    0.22339   1.00
H2       0.29228    0.25739    0.13091   1.00
H2       0.48897    0.54613    0.22892   1.00
H2       0.32743    0.20538    0.12557   1.00
H2       0.54921    0.62898    0.22118   1.00
H2       0.44836    0.30823    0.13283   1.00
H2       0.58730    0.57753    0.19212   1.00
H2       0.41087    0.35843    0.13801   1.00
H2       0.52628    0.49549    0.20045   1.00
H2       0.46455    0.35181    0.15622   1.00
H2       0.52581    0.51931    0.17494   1.00
H2       0.34429    0.16555    0.16851   1.00
H2       0.47130    0.64907    0.18661   1.00
H2       0.40701    0.19480    0.14936   1.00
H2       0.55671    0.66770    0.18545   1.00
H2       0.42666    0.23507    0.17327   1.00
H2       0.49791    0.61478    0.16691   1.00
C4       0.70467    0.87013    0.20558   1.00
C4       0.65049    0.84403    0.22006   1.00
C3       0.70481    0.90684    0.18801   1.00
C3       0.59639    0.85890    0.21914   1.00
C3       0.76124    0.85949    0.20851   1.00
C3       0.64960    0.80143    0.23621   1.00
C2       0.81579    0.92581    0.17679   1.00
C2       0.53912    0.78858    0.24877   1.00
C3       0.75876    0.93418    0.17408   1.00
C3       0.54217    0.83182    0.23298   1.00
C3       0.81533    0.88849    0.19403   1.00
C3       0.59327    0.77457    0.24992   1.00
H1       0.66539    0.91452    0.18456   1.00
H1       0.59470    0.89053    0.20850   1.00
C5       0.76262    0.82048    0.22546   1.00
C5       0.70413    0.78699    0.23843   1.00
H1       0.75592    0.96039    0.16176   1.00
H1       0.50458    0.84428    0.23144   1.00
H1       0.85663    0.88242    0.19568   1.00
H1       0.59059    0.74372    0.26152   1.00
C6       0.82594    0.81580    0.22956   1.00
C6       0.69892    0.73611    0.25424   1.00
H2       0.87078    0.86611    0.22767   1.00
H2       0.64763    0.69196    0.25392   1.00
H2       0.82985    0.80542    0.24545   1.00
H2       0.72969    0.71332    0.25024   1.00
C6       0.83040    0.76088    0.21620   1.00
C6       0.71917    0.76740    0.27607   1.00
H2       0.81671    0.76466    0.20055   1.00
H2       0.69602    0.79884    0.27909   1.00
C6       0.90000    0.76184    0.21580   1.00
C6       0.70147    0.71681    0.29425   1.00
H2       0.79095    0.71069    0.22144   1.00
H2       0.77413    0.80276    0.27614   1.00
C6       0.95686    0.82728    0.20551   1.00
C6       0.62331    0.67174    0.29725   1.00
C6       0.92335    0.75580    0.23741   1.00
C6       0.73299    0.67038    0.29145   1.00
C6       0.89084    0.69981    0.20323   1.00
C6       0.73145    0.75893    0.31396   1.00
H2       0.94148    0.83361    0.19033   1.00
H2       0.59935    0.70302    0.29895   1.00
H2       0.96893    0.87272    0.21426   1.00
H2       0.59940    0.63762    0.28444   1.00
H2       1.00384    0.82530    0.20403   1.00
H2       0.61153    0.64005    0.31079   1.00
H2       0.96929    0.75160    0.23686   1.00
H2       0.72451    0.63876    0.30484   1.00
H2       0.93505    0.80057    0.24650   1.00
H2       0.71017    0.63625    0.27855   1.00
H2       0.88363    0.71087    0.24516   1.00
H2       0.78783    0.70085    0.28888   1.00
H2       0.87501    0.70198    0.18773   1.00
H2       0.71025    0.79217    0.31677   1.00
H2       0.93833    0.69851    0.20239   1.00
H2       0.72000    0.72578    0.32715   1.00
H2       0.85223    0.65190    0.20998   1.00
H2       0.78678    0.79086    0.31294   1.00
C4       0.13062    0.83610    0.20587   1.00
C4       0.15726    0.80849    0.22034   1.00
C3       0.08280    0.79527    0.19067   1.00
C3       0.13269    0.73718    0.22199   1.00
C3       0.15213    0.90718    0.20638   1.00
C3       0.21044    0.85313    0.23382   1.00
C2       0.07417    0.89122    0.17724   1.00
C2       0.21338    0.75286    0.24892   1.00
C3       0.05511    0.82180    0.17684   1.00
C3       0.16004    0.71012    0.23575   1.00
C3       0.12242    0.93211    0.19210   1.00
C3       0.23716    0.82355    0.24755   1.00
H1       0.06681    0.74486    0.18895   1.00
H1       0.09354    0.70216    0.21338   1.00
C5       0.20228    0.95139    0.22078   1.00
C5       0.23529    0.92511    0.23347   1.00
H1       0.02063    0.78961    0.16630   1.00
H1       0.14026    0.65825    0.23614   1.00
H1       0.13607    0.98225    0.19207   1.00
H1       0.27532    0.85368    0.25728   1.00
C6       0.21915    1.02486    0.22258   1.00
C6       0.29639    0.97241    0.24628   1.00
H2       0.17198    1.02668    0.22222   1.00
H2       0.33492    0.95720    0.24501   1.00
H2       0.23891    1.04565    0.23752   1.00
H2       0.32317    1.02371    0.24005   1.00
C6       0.27099    1.07260    0.20610   1.00
C6       0.27770    0.97604    0.26896   1.00
H2       0.25681    1.04741    0.19132   1.00
H2       0.24246    0.92465    0.27449   1.00
C6       0.28055    1.14563    0.20358   1.00
C6       0.33777    1.01087    0.28452   1.00
H2       0.32060    1.07795    0.20959   1.00
H2       0.24890    1.00291    0.26936   1.00
C6       0.21491    1.14281    0.19543   1.00
C6       0.37483    0.96943    0.28731   1.00
C6       0.30167    1.18585    0.22380   1.00
C6       0.39027    1.08469    0.27808   1.00
C6       0.33818    1.18557    0.18789   1.00
C6       0.30806    1.01418    0.30544   1.00
H2       0.19802    1.11375    0.18132   1.00
H2       0.33894    0.91671    0.29154   1.00
H2       0.17328    1.11902    0.20631   1.00
H2       0.40057    0.96860    0.27346   1.00
H2       0.22352    1.19389    0.19240   1.00
H2       0.41345    0.99150    0.29919   1.00
H2       0.31293    1.23825    0.22157   1.00
H2       0.42925    1.11015    0.28972   1.00
H2       0.26086    1.16243    0.23498   1.00
H2       0.41615    1.08499    0.26411   1.00
H2       0.34697    1.18738    0.23009   1.00
H2       0.36524    1.11459    0.27560   1.00
H2       0.32545    1.15964    0.17323   1.00
H2       0.27112    0.96317    0.31080   1.00
H2       0.34648    1.23689    0.18550   1.00
H2       0.34811    1.03776    0.31688   1.00
H2       0.38630    1.19050    0.19298   1.00
H2       0.28238    1.04402    0.30455   1.00
C4       0.97035    0.49415    0.63066   1.00
C4       1.02779    0.52506    0.61735   1.00
C3       0.92728    0.42211    0.63208   1.00
C3       1.05036    0.48621    0.60614   1.00
C3       0.95456    0.53611    0.64312   1.00
C3       1.06474    0.59754    0.61498   1.00
C2       0.85616    0.43148    0.65830   1.00
C2       1.14189    0.58723    0.58966   1.00
C3       0.87211    0.39160    0.64554   1.00
C3       1.10543    0.51619    0.59264   1.00
C3       0.89815    0.50302    0.65670   1.00
C3       1.12030    0.62604    0.60099   1.00
H1       0.93396    0.38911    0.62325   1.00
H1       1.02805    0.43473    0.60753   1.00
C5       0.99434    0.60899    0.64174   1.00
C5       1.04621    0.63956    0.62649   1.00
H1       0.84316    0.33935    0.64590   1.00
H1       1.11900    0.48532    0.58495   1.00
H1       0.88561    0.53111    0.66590   1.00
H1       1.14752    0.67732    0.59879   1.00
C6       0.98161    0.65263    0.65651   1.00
C6       1.08102    0.71536    0.62225   1.00
H2       0.97529    0.63125    0.67169   1.00
H2       1.08490    0.72350    0.60590   1.00
H2       1.02658    0.70260    0.65844   1.00
H2       1.04924    0.73668    0.62662   1.00
C6       0.91985    0.66187    0.65035   1.00
C6       1.15218    0.75691    0.63289   1.00
H2       0.87716    0.61284    0.64553   1.00
H2       1.18087    0.73022    0.63104   1.00
C6       0.89247    0.69280    0.66657   1.00
C6       1.19928    0.83266    0.62609   1.00
H2       0.93468    0.69420    0.63687   1.00
H2       1.14324    0.75645    0.64919   1.00
C6       0.86017    0.64435    0.68496   1.00
C6       1.22349    0.83732    0.60383   1.00
C6       0.94945    0.76317    0.67418   1.00
C6       1.16316    0.87506    0.62842   1.00
C6       0.83598    0.70293    0.65664   1.00
C6       1.26369    0.86530    0.63979   1.00
H2       0.82046    0.59383    0.68006   1.00
H2       1.24824    0.80698    0.60160   1.00
H2       0.89809    0.63828    0.69342   1.00
H2       1.18106    0.81905    0.59323   1.00
H2       0.83706    0.66414    0.69549   1.00
H2       1.25998    0.88989    0.59969   1.00
H2       0.92887    0.78646    0.68436   1.00
H2       1.19798    0.92876    0.62503   1.00
H2       0.98832    0.75826    0.68252   1.00
H2       1.12006    0.85710    0.61806   1.00
H2       0.97401    0.79783    0.66148   1.00
H2       1.14434    0.87147    0.64387   1.00
H2       0.79405    0.65450    0.65118   1.00
H2       1.29154    0.83763    0.63854   1.00
H2       0.81489    0.72406    0.66743   1.00
H2       1.29847    0.91823    0.63553   1.00
H2       0.85601    0.73782    0.64377   1.00
H2       1.25002    0.86479    0.65569   1.00
C4       0.52331    0.02989    0.63057   1.00
C4       0.49654    -0.02762   0.61728   1.00
C3       0.49826    0.07643    0.63078   1.00
C3       0.43830    -0.04666   0.60483   1.00
C3       0.57727    0.04218    0.64426   1.00
C3       0.52853    -0.06830   0.61622   1.00
C2       0.57510    0.14431    0.65813   1.00
C2       0.44437    -0.14192   0.58966   1.00
C3       0.52304    0.13172    0.64419   1.00
C3       0.41312    -0.10182   0.59135   1.00
C3       0.60082    0.09885    0.65775   1.00
C3       0.50153    -0.12383   0.60222   1.00
H1       0.46153    0.07228    0.62105   1.00
H1       0.41158    -0.02156   0.60523   1.00
C5       0.60652    -0.00124   0.64416   1.00
C5       0.58558    -0.05337   0.62901   1.00
H1       0.50264    0.16326    0.64364   1.00
H1       0.37110    -0.11274   0.58273   1.00
H1       0.63880    0.10898    0.66780   1.00
H1       0.52316    -0.15364   0.60094   1.00
C6       0.65845    0.00798    0.66015   1.00
C6       0.62336    -0.09222   0.62620   1.00
H2       0.64123    0.01559    0.67485   1.00
H2       0.63063    -0.09655   0.61004   1.00
H2       0.65964    -0.03883   0.66271   1.00
H2       0.67571    -0.06310   0.63151   1.00
C6       0.73235    0.06681    0.65509   1.00
C6       0.58761    -0.16365   0.63687   1.00
H2       0.73032    0.11135    0.64963   1.00
H2       0.53276    -0.18941   0.63396   1.00
C6       0.78688    0.09103    0.67240   1.00
C6       0.61320    -0.21433   0.63134   1.00
H2       0.75094    0.05023    0.64224   1.00
H2       0.59295    -0.15497   0.65324   1.00
C6       0.76980    0.12557    0.68998   1.00
C6       0.59739    -0.23801   0.60892   1.00
C6       0.79408    0.03124    0.68097   1.00
C6       0.69070    -0.18251   0.63522   1.00
C6       0.85700    0.14472    0.66352   1.00
C6       0.57521    -0.27862   0.64494   1.00
H2       0.76328    0.16735    0.68437   1.00
H2       0.54318    -0.25973   0.60560   1.00
H2       0.72305    0.08949    0.69775   1.00
H2       0.62586    -0.19589   0.59847   1.00
H2       0.81043    0.14647    0.70128   1.00
H2       0.61110    -0.27685   0.60560   1.00
H2       0.83554    0.04945    0.69198   1.00
H2       0.70706    -0.21981   0.63270   1.00
H2       0.74750    -0.00584   0.68864   1.00
H2       0.72011    -0.13976   0.62502   1.00
H2       0.80471    0.00513    0.66883   1.00
H2       0.70341    -0.16411   0.65078   1.00
H2       0.85489    0.18848    0.65744   1.00
H2       0.52015    -0.30352   0.64262   1.00
H2       0.89678    0.16357    0.67510   1.00
H2       0.59105    -0.31585   0.64153   1.00
H2       0.87256    0.12296    0.65128   1.00
H2       0.58547    -0.26540   0.66097   1.00
C4       0.50654    0.47668    0.63057   1.00
C4       0.47580    0.50344    0.61728   1.00
C3       0.57816    0.50186    0.63082   1.00
C3       0.51500    0.56178    0.60487   1.00
C3       0.46486    0.42258    0.64422   1.00
C3       0.40313    0.47133    0.61618   1.00
C2       0.56917    0.42489    0.65814   1.00
C2       0.41367    0.55560    0.58966   1.00
C3       0.60867    0.47708    0.64424   1.00
C3       0.48501    0.58696    0.59140   1.00
C3       0.49797    0.39904    0.65772   1.00
C3       0.37460    0.49833    0.60218   1.00
H1       0.61076    0.53869    0.62112   1.00
H1       0.56681    0.58859    0.60530   1.00
C5       0.39217    0.39320    0.64408   1.00
C5       0.36100    0.41416    0.62893   1.00
H1       0.66063    0.49759    0.64371   1.00
H1       0.51611    0.62907    0.58280   1.00
H1       0.47011    0.36097    0.66774   1.00
H1       0.32315    0.47661    0.60087   1.00
C6       0.34943    0.34113    0.66004   1.00
C6       0.28439    0.37626    0.62607   1.00
H2       0.37414    0.35827    0.67475   1.00
H2       0.27291    0.36909    0.60991   1.00
H2       0.30135    0.33980    0.66257   1.00
H2       0.26122    0.32388    0.63136   1.00
C6       0.33454    0.26731    0.65493   1.00
C6       0.24852    0.41182    0.63675   1.00
H2       0.38120    0.26948    0.64950   1.00
H2       0.27753    0.46669    0.63387   1.00
C6       0.30421    0.21265    0.67221   1.00
C6       0.17226    0.38612    0.63117   1.00
H2       0.29946    0.24875    0.64206   1.00
H2       0.25175    0.40637    0.65311   1.00
C6       0.35573    0.22971    0.68982   1.00
C6       0.16449    0.40204    0.60876   1.00
C6       0.23709    0.20524    0.68075   1.00
C6       0.12668    0.30858    0.63500   1.00
C6       0.28798    0.14264    0.66329   1.00
C6       0.14575    0.42391    0.64478   1.00
H2       0.40410    0.23637    0.68423   1.00
H2       0.19692    0.45629    0.60548   1.00
H2       0.36624    0.27637    0.69761   1.00
H2       0.17830    0.37372    0.59830   1.00
H2       0.33598    0.18900    0.70110   1.00
H2       0.11194    0.38826    0.60542   1.00
H2       0.21384    0.16371    0.69174   1.00
H2       0.07300    0.29213    0.63245   1.00
H2       0.24645    0.25174    0.68845   1.00
H2       0.14017    0.27930    0.62479   1.00
H2       0.20042    0.19463    0.66859   1.00
H2       0.13230    0.29578    0.65056   1.00
H2       0.33394    0.14489    0.65723   1.00
H2       0.17583    0.47899    0.64249   1.00
H2       0.26704    0.10277    0.67485   1.00
H2       0.09268    0.40799    0.64135   1.00
H2       0.25074    0.12710    0.65104   1.00
H2       0.14863    0.41356    0.66081   1.00
C4       0.50951    0.03965    0.12711   1.00
C4       0.47966    -0.01488   0.11276   1.00
C3       0.57310    0.05962    0.13674   1.00
C3       0.51450    -0.04843   0.10546   1.00
C3       0.47511    0.07611    0.13222   1.00
C3       0.41249    -0.03732   0.10523   1.00
C2       0.57153    0.15208    0.15537   1.00
C2       0.41808    -0.12737   0.08450   1.00
C3       0.60343    0.11431    0.15037   1.00
C3       0.48463    -0.10318   0.09184   1.00
C3       0.50791    0.13173    0.14609   1.00
C3       0.38376    -0.09351   0.09147   1.00
H1       0.59944    0.03474    0.13437   1.00
H1       0.56314    -0.03389   0.10960   1.00
C5       0.40961    0.05652    0.12366   1.00
C5       0.37600    -0.00367   0.11137   1.00
H1       0.64950    0.12633    0.15674   1.00
H1       0.51234    -0.12538   0.08721   1.00
H1       0.48527    0.15917    0.14999   1.00
H1       0.33595    -0.11123   0.08589   1.00
C6       0.37721    0.09997    0.12752   1.00
C6       0.30239    -0.03250   0.10501   1.00
H2       0.41588    0.15355    0.12591   1.00
H2       0.27548    -0.08769   0.10690   1.00
H2       0.34150    0.09399    0.11559   1.00
H2       0.27483    -0.01778   0.11544   1.00
C6       0.34002    0.08531    0.14852   1.00
C6       0.29450    -0.01162   0.08294   1.00
H2       0.37201    0.08142    0.16026   1.00
H2       0.32972    -0.01699   0.07279   1.00
C6       0.31797    0.13697    0.15610   1.00
C6       0.22187    -0.05021   0.07311   1.00
H2       0.29462    0.03475    0.14773   1.00
H2       0.31161    0.04285    0.08305   1.00
C6       0.38055    0.20791    0.16077   1.00
C6       0.19815    -0.12651   0.06937   1.00
C6       0.27148    0.14529    0.14051   1.00
C6       0.16826    -0.04472   0.08633   1.00
C6       0.27703    0.10923    0.17611   1.00
C6       0.22485    -0.01723   0.05220   1.00
H2       0.41498    0.20364    0.17149   1.00
H2       0.23548    -0.13214   0.06034   1.00
H2       0.40942    0.23230    0.14708   1.00
H2       0.19089    -0.15388   0.08357   1.00
H2       0.36481    0.24208    0.16736   1.00
H2       0.14968    -0.15182   0.06125   1.00
H2       0.25246    0.17754    0.14654   1.00
H2       0.11895    -0.06755   0.07868   1.00
H2       0.29930    0.16905    0.12660   1.00
H2       0.16074    -0.07128   0.10072   1.00
H2       0.22773    0.09588    0.13663   1.00
H2       0.18443    0.00849    0.08955   1.00
H2       0.30787    0.10307    0.18774   1.00
H2       0.26155    -0.02039   0.04217   1.00
H2       0.26085    0.14386    0.18209   1.00
H2       0.17529    -0.04279   0.04466   1.00
H2       0.23136    0.05974    0.17371   1.00
H2       0.24000    0.03646    0.05388   1.00
C4       0.96943    0.47757    0.13031   1.00
C4       1.02515    0.50663    0.11635   1.00
C3       0.97003    0.44228    0.14814   1.00
C3       1.08804    0.50872    0.12029   1.00
C3       0.91039    0.48344    0.12653   1.00
C3       1.01867    0.53500    0.09768   1.00
C2       0.85821    0.42168    0.15907   1.00
C2       1.13666    0.56235    0.08770   1.00
C3       0.91633    0.41545    0.16215   1.00
C3       1.14204    0.53540    0.10638   1.00
C3       0.85696    0.45573    0.14124   1.00
C3       1.07472    0.56133    0.08387   1.00
H1       1.00921    0.43415    0.15151   1.00
H1       1.09723    0.49156    0.13350   1.00
C5       0.90561    0.51589    0.10842   1.00
C5       0.95766    0.53694    0.09324   1.00
H1       0.91999    0.39080    0.17475   1.00
H1       1.18597    0.53517    0.11010   1.00
H1       0.81437    0.45931    0.13916   1.00
H1       1.07187    0.58151    0.07038   1.00
C6       0.84623    0.52817    0.10567   1.00
C6       0.94866    0.56041    0.07255   1.00
H2       0.83728    0.54710    0.11987   1.00
H2       0.96519    0.53751    0.06095   1.00
H2       0.85894    0.57062    0.09548   1.00
H2       0.89513    0.53930    0.06875   1.00
C6       0.77995    0.46381    0.09782   1.00
C6       0.98586    0.63997    0.07044   1.00
H2       0.77222    0.41871    0.10613   1.00
H2       1.03694    0.66241    0.07699   1.00
C6       0.71175    0.46557    0.09870   1.00
C6       0.99298    0.67014    0.04862   1.00
H2       0.78885    0.45505    0.08210   1.00
H2       0.95871    0.65827    0.07990   1.00
C6       0.68951    0.46691    0.12087   1.00
C6       1.04029    0.65570    0.03504   1.00
C6       0.71744    0.52762    0.08705   1.00
C6       0.92272    0.64185    0.03814   1.00
C6       0.65468    0.39979    0.08856   1.00
C6       1.02556    0.74873    0.05037   1.00
H2       0.68610    0.42432    0.12960   1.00
H2       1.08999    0.67409    0.04218   1.00
H2       0.72537    0.51394    0.12856   1.00
H2       1.01837    0.60138    0.03213   1.00
H2       0.63966    0.46335    0.12136   1.00
H2       1.04872    0.68092    0.02035   1.00
H2       0.66833    0.52572    0.08652   1.00
H2       0.92775    0.66679    0.02356   1.00
H2       0.75366    0.57531    0.09440   1.00
H2       0.89959    0.58731    0.03527   1.00
H2       0.73442    0.52868    0.07150   1.00
H2       0.88795    0.65009    0.04759   1.00
H2       0.64807    0.35433    0.09636   1.00
H2       1.07574    0.77141    0.05750   1.00
H2       0.60581    0.39843    0.08892   1.00
H2       1.03202    0.77226    0.03547   1.00
H2       0.66678    0.39658    0.07271   1.00
H2       0.99377    0.76223    0.05947   1.00
C4       0.52313    0.49315    0.13053   1.00
C4       0.49390    0.51994    0.11668   1.00
C3       0.56749    0.53288    0.14655   1.00
C3       0.50114    0.58576    0.11915   1.00
C3       0.50808    0.42412    0.12849   1.00
C3       0.45572    0.48006    0.09963   1.00
C2       0.57961    0.43804    0.15916   1.00
C2       0.43766    0.57553    0.08813   1.00
C3       0.59465    0.50619    0.16051   1.00
C3       0.47422    0.61296    0.10528   1.00
C3       0.53647    0.39877    0.14309   1.00
C3       0.42946    0.50977    0.08580   1.00
H1       0.58226    0.58290    0.14856   1.00
H1       0.52567    0.61614    0.13122   1.00
C5       0.46606    0.38249    0.11216   1.00
C5       0.44427    0.41232    0.09681   1.00
H1       0.62610    0.53741    0.17177   1.00
H1       0.48145    0.66085    0.10787   1.00
H1       0.52656    0.34981    0.14223   1.00
H1       0.40244    0.48318    0.07343   1.00
C6       0.44465    0.30757    0.11144   1.00
C6       0.41011    0.37355    0.07761   1.00
H2       0.42946    0.28599    0.12660   1.00
H2       0.43146    0.40774    0.06466   1.00
H2       0.39756    0.27812    0.10299   1.00
H2       0.42403    0.33515    0.07417   1.00
C6       0.50071    0.29403    0.10231   1.00
C6       0.33042    0.33875    0.07827   1.00
H2       0.55045    0.33048    0.10865   1.00
H2       0.31591    0.37437    0.08456   1.00
C6       0.49074    0.22087    0.10492   1.00
C6       0.29076    0.31038    0.05787   1.00
H2       0.50462    0.30564    0.08611   1.00
H2       0.31169    0.29681    0.08915   1.00
C6       0.49559    0.20443    0.12750   1.00
C6       0.30628    0.36849    0.04260   1.00
C6       0.42160    0.16543    0.09610   1.00
C6       0.30743    0.25848    0.04789   1.00
C6       0.54850    0.21749    0.09323   1.00
C6       0.21310    0.27305    0.06243   1.00
H2       0.54340    0.24328    0.13427   1.00
H2       0.29609    0.40660    0.04931   1.00
H2       0.45385    0.20179    0.13641   1.00
H2       0.35935    0.39430    0.03775   1.00
H2       0.49332    0.15535    0.12903   1.00
H2       0.27489    0.34871    0.02900   1.00
H2       0.41727    0.11523    0.09668   1.00
H2       0.27594    0.23541    0.03447   1.00
H2       0.37908    0.16244    0.10470   1.00
H2       0.36059    0.28323    0.04310   1.00
H2       0.41627    0.17657    0.08033   1.00
H2       0.29830    0.21776    0.05848   1.00
H2       0.59854    0.25525    0.09903   1.00
H2       0.19846    0.30771    0.06932   1.00
H2       0.54399    0.16737    0.09472   1.00
H2       0.18315    0.25267    0.04860   1.00
H2       0.54692    0.22731    0.07709   1.00
H2       0.19868    0.23050    0.07284   1.00
C4       0.70643    0.84221    0.70627   1.00
C4       0.65179    0.81213    0.72058   1.00
C3       0.73031    0.90853    0.69804   1.00
C3       0.62208    0.84885    0.72925   1.00
C3       0.73897    0.80524    0.69975   1.00
C3       0.62528    0.74276    0.72665   1.00
C2       0.81912    0.90443    0.67810   1.00
C2       0.53908    0.75038    0.74876   1.00
C3       0.78514    0.93893    0.68446   1.00
C3       0.56722    0.81894    0.74283   1.00
C3       0.79488    0.83818    0.68599   1.00
C3       0.56913    0.71409    0.74043   1.00
H1       0.70832    0.93696    0.70144   1.00
H1       0.63962    0.89892    0.72617   1.00
C5       0.71533    0.73717    0.70686   1.00
C5       0.65497    0.70407    0.71909   1.00
H1       0.80009    0.98702    0.67914   1.00
H1       0.54790    0.84809    0.74848   1.00
H1       0.81961    0.81373    0.68111   1.00
H1       0.54858    0.66479    0.74499   1.00
C6       0.75473    0.70148    0.70155   1.00
C6       0.62185    0.62877    0.72393   1.00
H2       0.80907    0.73717    0.70340   1.00
H2       0.56682    0.60539    0.72213   1.00
H2       0.74633    0.66241    0.71260   1.00
H2       0.63400    0.60160    0.71261   1.00
C6       0.73796    0.66883    0.67985   1.00
C6       0.64130    0.61422    0.74544   1.00
H2       0.73658    0.70473    0.66903   1.00
H2       0.63869    0.64869    0.75654   1.00
C6       0.78602    0.64407    0.67097   1.00
C6       0.59885    0.53987    0.75389   1.00
H2       0.68602    0.62544    0.68017   1.00
H2       0.69491    0.62800    0.74499   1.00
C6       0.85881    0.70458    0.66694   1.00
C6       0.52375    0.52004    0.75809   1.00
C6       0.79058    0.59203    0.68519   1.00
C6       0.60023    0.48711    0.73923   1.00
C6       0.75639    0.60827    0.65035   1.00
C6       0.63073    0.53592    0.77434   1.00
H2       0.85726    0.74280    0.65720   1.00
H2       0.52105    0.55695    0.76815   1.00
H2       0.88434    0.72957    0.68099   1.00
H2       0.49694    0.51767    0.74414   1.00
H2       0.89053    0.68736    0.65946   1.00
H2       0.49585    0.47003    0.76529   1.00
H2       0.82020    0.57144    0.67822   1.00
H2       0.57465    0.43617    0.74590   1.00
H2       0.81542    0.61594    0.69945   1.00
H2       0.57418    0.48446    0.72506   1.00
H2       0.73986    0.54958    0.68862   1.00
H2       0.65258    0.50069    0.73568   1.00
H2       0.75276    0.64312    0.63965   1.00
H2       0.63035    0.57178    0.78535   1.00
H2       0.78851    0.59042    0.64347   1.00
H2       0.60251    0.48495    0.78094   1.00
H2       0.70547    0.56417    0.65226   1.00
H2       0.68346    0.54807    0.77230   1.00
C4       0.13025    0.29485    0.70575   1.00
C4       0.15484    0.35093    0.71954   1.00
C3       0.13892    0.23756    0.70928   1.00
C3       0.18333    0.35043    0.73877   1.00
C3       0.09564    0.29527    0.68766   1.00
C3       0.15111    0.41016    0.71416   1.00
C2       0.07762    0.17988    0.67838   1.00
C2       0.20764    0.46564    0.74702   1.00
C3       0.11316    0.18162    0.69608   1.00
C3       0.20926    0.40610    0.75207   1.00
C3       0.06985    0.23713    0.67467   1.00
C3       0.17844    0.46591    0.72809   1.00
H1       0.16487    0.23463    0.72146   1.00
H1       0.18568    0.30934    0.74392   1.00
C5       0.08787    0.35279    0.68286   1.00
C5       0.12038    0.41252    0.69538   1.00
H1       0.12088    0.14175    0.69953   1.00
H1       0.22940    0.40265    0.76568   1.00
H1       0.04456    0.23533    0.66174   1.00
H1       0.17714    0.50907    0.72474   1.00
C6       0.04492    0.34946    0.66483   1.00
C6       0.12332    0.47810    0.68892   1.00
H2       -0.00168   0.29995    0.66467   1.00
H2       0.17436    0.52071    0.69180   1.00
H2       0.02485    0.38388    0.66657   1.00
H2       0.11950    0.48083    0.67255   1.00
C6       0.08407    0.36485    0.64415   1.00
C6       0.06715    0.48917    0.69918   1.00
H2       0.11267    0.33776    0.64354   1.00
H2       0.06392    0.47681    0.71531   1.00
C6       0.04106    0.34819    0.62421   1.00
C6       0.07442    0.56143    0.69723   1.00
H2       0.12263    0.41895    0.64398   1.00
H2       0.01792    0.45169    0.69281   1.00
C6       -0.00775   0.27040    0.62164   1.00
C6       0.13790    0.61641    0.70878   1.00
C6       -0.00084   0.38521    0.62354   1.00
C6       0.07853    0.58319    0.67476   1.00
C6       0.09061    0.37307    0.60583   1.00
C6       0.01054    0.55884    0.70683   1.00
H2       0.02016    0.24266    0.62237   1.00
H2       0.13708    0.60200    0.72464   1.00
H2       -0.04673   0.25020    0.63339   1.00
H2       0.18504    0.62392    0.70202   1.00
H2       -0.03399   0.25895    0.60705   1.00
H2       0.13990    0.66556    0.70853   1.00
H2       -0.02676   0.37720    0.60899   1.00
H2       0.07866    0.63132    0.67352   1.00
H2       -0.03976   0.36615    0.63534   1.00
H2       0.12512    0.59033    0.66765   1.00
H2       0.03216    0.43996    0.62574   1.00
H2       0.03513    0.54464    0.66619   1.00
H2       0.12101    0.34789    0.60547   1.00
H2       0.00564    0.54437    0.72281   1.00
H2       0.06288    0.36214    0.59151   1.00
H2       0.01345    0.60838    0.70596   1.00
H2       0.12557    0.42800    0.60656   1.00
H2       -0.03593   0.52184    0.69905   1.00
C4       0.16422    0.86956    0.70582   1.00
C4       0.19568    0.84502    0.71964   1.00
C3       0.09698    0.85813    0.70883   1.00
C3       0.16508    0.81372    0.73846   1.00
C3       0.20059    0.90696    0.68822   1.00
C3       0.26025    0.85172    0.71472   1.00
C2       0.10180    0.92201    0.67841   1.00
C2       0.25765    0.79238    0.74715   1.00
C3       0.06675    0.88379    0.69563   1.00
C3       0.19485    0.78786    0.75177   1.00
C3       0.16812    0.93254    0.67520   1.00
C3       0.28867    0.82437    0.72864   1.00
H1       0.06720    0.83015    0.72063   1.00
H1       0.12034    0.80915    0.74329   1.00
C5       0.26733    0.91763    0.68393   1.00
C5       0.29488    0.88532    0.69639   1.00
H1       0.01820    0.87401    0.69869   1.00
H1       0.17007    0.76561    0.76507   1.00
H1       0.19254    0.95976    0.66261   1.00
H1       0.33428    0.82773    0.72560   1.00
C6       0.30806    0.96337    0.66647   1.00
C6       0.35952    0.88560    0.69034   1.00
H2       0.30330    1.00894    0.66661   1.00
H2       0.35260    0.83493    0.69280   1.00
H2       0.36256    0.98490    0.66872   1.00
H2       0.36791    0.89154    0.67405   1.00
C6       0.28774    0.92657    0.64537   1.00
C6       0.42465    0.94197    0.70144   1.00
H2       0.23220    0.89649    0.64419   1.00
H2       0.41339    0.94287    0.71752   1.00
C6       0.31516    0.97208    0.62593   1.00
C6       0.49133    0.93756    0.69988   1.00
H2       0.30508    0.88940    0.64504   1.00
H2       0.43542    0.99142    0.69549   1.00
C6       0.28403    1.01911    0.62350   1.00
C6       0.48383    0.87367    0.71093   1.00
C6       0.39396    1.01622    0.62609   1.00
C6       0.51201    0.93688    0.67752   1.00
C6       0.29406    0.92478    0.60706   1.00
C6       0.55016    1.00134    0.71034   1.00
H2       0.22838    0.98955    0.62366   1.00
H2       0.46816    0.87206    0.72668   1.00
H2       0.30030    1.05661    0.63565   1.00
H2       0.44609    0.82678    0.70357   1.00
H2       0.29974    1.04712    0.60921   1.00
H2       0.53195    0.87354    0.71098   1.00
H2       0.41285    1.04403    0.61185   1.00
H2       0.56104    0.93873    0.67661   1.00
H2       0.41134    1.05371    0.63829   1.00
H2       0.47447    0.89058    0.66983   1.00
H2       0.41715    0.98446    0.62821   1.00
H2       0.51624    0.98062    0.66929   1.00
H2       0.23868    0.89292    0.60611   1.00
H2       0.53842    1.00388    0.72627   1.00
H2       0.31170    0.95430    0.59305   1.00
H2       0.59786    1.00037    0.70976   1.00
H2       0.31567    0.89121    0.60768   1.00
H2       0.55889    1.04817    0.70295   1.00
