data_IRMOF10_interpen_symm_ligand2lp_label_i.

_audit_creation_method             'generated by an auxiliary program of Tobunporous'

_symmetry_space_group_name_H-M     'P 1'
_symmetry_Int_Tables_number        1
_symmetry_cell_setting             triclinic

_cell_length_a                    22.6523
_cell_length_b                    22.6523
_cell_length_c                    65.9502
_cell_angle_alpha                 90.0000
_cell_angle_beta                  90.0000
_cell_angle_gamma                 120.0000

loop_
_atom_site_label
_atom_site_fract_x
_atom_site_fract_y
_atom_site_fract_z
_atom_site_occupancy
O1       0.00000    -0.00000   0.62500   1.00
Zn      0.00000    -0.00000   0.59589   1.00
Zn      0.94848    1.04288    0.63392   1.00
Zn      0.09439    0.05152    0.63392   1.00
Zn      -0.04288   0.90561    0.63392   1.00
O2       0.93860    0.02610    0.58587   1.00
O2       0.08750    0.06140    0.58587   1.00
O2       -0.02610   0.91250    0.58587   1.00
O2       0.91305    0.07161    0.61181   1.00
O2       0.00462    0.12022    0.65110   1.00
O2       0.87413    0.98074    0.65071   1.00
O2       0.15856    0.08695    0.61181   1.00
O2       0.10660    0.12587    0.65071   1.00
O2       0.11559    0.99538    0.65110   1.00
O2       -0.07161   0.84144    0.61181   1.00
O2       0.87978    0.88441    0.65110   1.00
O2       0.01926    0.89340    0.65071   1.00
C1       0.91390    0.06020    0.59358   1.00
C1       0.14630    0.08610    0.59358   1.00
C1       -0.06020   0.85370    0.59358   1.00
C1       0.06663    0.14397    0.65673   1.00
C1       0.85603    0.92267    0.65673   1.00
C1       0.07733    0.93337    0.65673   1.00
O1       -0.00000   0.00000    0.87500   1.00
Zn      -0.00000   0.00000    0.90411   1.00
Zn      1.04288    0.94848    0.86608   1.00
Zn      0.05152    0.09439    0.86608   1.00
Zn      0.90561    -0.04288   0.86608   1.00
O2       0.02610    0.93860    0.91413   1.00
O2       0.06140    0.08750    0.91413   1.00
O2       0.91250    -0.02610   0.91413   1.00
O2       0.07161    0.91305    0.88819   1.00
O2       0.12022    0.00462    0.84890   1.00
O2       0.98074    0.87413    0.84929   1.00
O2       0.08695    0.15856    0.88819   1.00
O2       0.12587    0.10660    0.84929   1.00
O2       0.99538    0.11559    0.84890   1.00
O2       0.84144    -0.07161   0.88819   1.00
O2       0.88441    0.87978    0.84890   1.00
O2       0.89340    0.01926    0.84929   1.00
C1       0.06020    0.91390    0.90642   1.00
C1       0.08610    0.14630    0.90642   1.00
C1       0.85370    -0.06020   0.90642   1.00
C1       0.14397    0.06663    0.84327   1.00
C1       0.92267    0.85603    0.84327   1.00
C1       0.93337    0.07733    0.84327   1.00
O1       0.00000    0.00000    0.37500   1.00
Zn      0.00000    0.00000    0.40411   1.00
Zn      0.05152    -0.04288   0.36608   1.00
Zn      0.90561    0.94848    0.36608   1.00
Zn      1.04288    0.09439    0.36608   1.00
O2       0.06140    -0.02610   0.41413   1.00
O2       0.91250    0.93860    0.41413   1.00
O2       0.02610    0.08750    0.41413   1.00
O2       0.08695    -0.07161   0.38819   1.00
O2       0.99538    0.87978    0.34890   1.00
O2       0.12587    0.01926    0.34929   1.00
O2       0.84144    0.91305    0.38819   1.00
O2       0.89340    0.87413    0.34929   1.00
O2       0.88441    0.00462    0.34890   1.00
O2       0.07161    0.15856    0.38819   1.00
O2       0.12022    0.11559    0.34890   1.00
O2       0.98074    0.10660    0.34929   1.00
C1       0.08610    -0.06020   0.40642   1.00
C1       0.85370    0.91390    0.40642   1.00
C1       0.06020    0.14630    0.40642   1.00
C1       0.93337    0.85603    0.34327   1.00
C1       0.14397    0.07733    0.34327   1.00
C1       0.92267    0.06663    0.34327   1.00
O1       0.00000    0.00000    0.12500   1.00
Zn      0.00000    0.00000    0.09589   1.00
Zn      -0.04288   0.05152    0.13392   1.00
Zn      0.94848    0.90561    0.13392   1.00
Zn      0.09439    1.04288    0.13392   1.00
O2       -0.02610   0.06140    0.08587   1.00
O2       0.93860    0.91250    0.08587   1.00
O2       0.08750    0.02610    0.08587   1.00
O2       -0.07161   0.08695    0.11181   1.00
O2       0.87978    0.99538    0.15110   1.00
O2       0.01926    0.12587    0.15071   1.00
O2       0.91305    0.84144    0.11181   1.00
O2       0.87413    0.89340    0.15071   1.00
O2       0.00462    0.88441    0.15110   1.00
O2       0.15856    0.07161    0.11181   1.00
O2       0.11559    0.12022    0.15110   1.00
O2       0.10660    0.98074    0.15071   1.00
C1       -0.06020   0.08610    0.09358   1.00
C1       0.91390    0.85370    0.09358   1.00
C1       0.14630    0.06020    0.09358   1.00
C1       0.85603    0.93337    0.15673   1.00
C1       0.07733    0.14397    0.15673   1.00
C1       0.06663    0.92267    0.15673   1.00
O1       0.66667    0.33333    0.95833   1.00
Zn      0.66667    0.33333    0.92922   1.00
Zn      0.61515    0.37621    0.96725   1.00
Zn      0.76106    0.38485    0.96725   1.00
Zn      -0.37621   0.23894    0.96725   1.00
O2       0.60527    0.35943    0.91920   1.00
O2       0.75417    0.39473    0.91920   1.00
O2       0.64057    0.24583    0.91920   1.00
O2       0.57972    0.40494    0.94514   1.00
O2       0.67129    0.45355    0.98443   1.00
O2       0.54080    0.31407    0.98404   1.00
O2       0.82523    0.42028    0.94514   1.00
O2       0.77327    0.45920    0.98404   1.00
O2       -0.21774   0.32871    0.98443   1.00
O2       0.59506    0.17477    0.94514   1.00
O2       0.54645    0.21774    0.98443   1.00
O2       -0.31407   0.22673    0.98404   1.00
C1       0.58057    0.39353    0.92691   1.00
C1       0.81297    0.41943    0.92691   1.00
C1       0.60647    0.18703    0.92691   1.00
C1       0.73330    0.47730    0.99006   1.00
C1       0.52270    0.25600    0.99006   1.00
C1       -0.25600   0.26670    0.99006   1.00
O1       0.66667    0.33333    0.20833   1.00
Zn      0.66667    0.33333    0.23744   1.00
Zn      0.70954    0.28182    0.19942   1.00
Zn      0.71818    0.42773    0.19942   1.00
Zn      0.57227    0.29046    0.19942   1.00
O2       0.69277    0.27193    0.24746   1.00
O2       0.72807    0.42083    0.24746   1.00
O2       0.57917    0.30723    0.24746   1.00
O2       0.73828    0.24638    0.22152   1.00
O2       0.78688    0.33796    0.18224   1.00
O2       0.64740    0.20747    0.18263   1.00
O2       0.75362    0.49189    0.22152   1.00
O2       0.79253    0.43994    0.18263   1.00
O2       0.66204    0.44893    0.18224   1.00
O2       0.50811    0.26172    0.22152   1.00
O2       0.55107    0.21312    0.18224   1.00
O2       0.56006    0.35260    0.18263   1.00
C1       0.72687    0.24723    0.23975   1.00
C1       0.75277    0.47963    0.23975   1.00
C1       0.52037    0.27313    0.23975   1.00
C1       0.81063    0.39997    0.17661   1.00
C1       0.58933    0.18937    0.17661   1.00
C1       0.60003    0.41067    0.17661   1.00
O1       0.66667    0.33333    0.70833   1.00
Zn      0.66667    0.33333    0.73744   1.00
Zn      0.71818    0.29046    0.69942   1.00
Zn      0.57227    0.28182    0.69942   1.00
Zn      0.70954    0.42773    0.69942   1.00
O2       0.72807    0.30723    0.74746   1.00
O2       0.57917    0.27193    0.74746   1.00
O2       0.69277    0.42083    0.74746   1.00
O2       0.75362    0.26172    0.72152   1.00
O2       0.66204    0.21312    0.68224   1.00
O2       0.79253    0.35260    0.68263   1.00
O2       0.50811    0.24638    0.72152   1.00
O2       0.56006    0.20747    0.68263   1.00
O2       0.55107    0.33796    0.68224   1.00
O2       0.73828    0.49189    0.72152   1.00
O2       0.78688    0.44893    0.68224   1.00
O2       0.64740    0.43994    0.68263   1.00
C1       0.75277    0.27313    0.73975   1.00
C1       0.52037    0.24723    0.73975   1.00
C1       0.72687    0.47963    0.73975   1.00
C1       0.60003    0.18937    0.67661   1.00
C1       0.81063    0.41067    0.67661   1.00
C1       0.58933    0.39997    0.67661   1.00
O1       0.66667    0.33333    0.45833   1.00
Zn      0.66667    0.33333    0.42922   1.00
Zn      -0.37621   0.38485    0.46725   1.00
Zn      0.61515    0.23894    0.46725   1.00
Zn      0.76106    0.37621    0.46725   1.00
O2       0.64057    0.39473    0.41920   1.00
O2       0.60527    0.24583    0.41920   1.00
O2       0.75417    0.35943    0.41920   1.00
O2       0.59506    0.42028    0.44514   1.00
O2       0.54645    0.32871    0.48443   1.00
O2       -0.31407   0.45920    0.48404   1.00
O2       0.57972    0.17477    0.44514   1.00
O2       0.54080    0.22673    0.48404   1.00
O2       0.67129    0.21774    0.48443   1.00
O2       0.82523    0.40494    0.44514   1.00
O2       -0.21774   0.45355    0.48443   1.00
O2       0.77327    0.31407    0.48404   1.00
C1       0.60647    0.41943    0.42691   1.00
C1       0.58057    0.18703    0.42691   1.00
C1       0.81297    0.39353    0.42691   1.00
C1       0.52270    0.26670    0.49006   1.00
C1       -0.25600   0.47730    0.49006   1.00
C1       0.73330    0.25600    0.49006   1.00
O1       0.33333    0.66667    0.29167   1.00
Zn      0.33333    0.66667    0.26256   1.00
Zn      0.28182    0.70954    0.30058   1.00
Zn      0.42773    0.71818    0.30058   1.00
Zn      0.29046    0.57227    0.30058   1.00
O2       0.27193    0.69277    0.25254   1.00
O2       0.42083    0.72807    0.25254   1.00
O2       0.30723    0.57917    0.25254   1.00
O2       0.24638    0.73828    0.27848   1.00
O2       0.33796    0.78688    0.31776   1.00
O2       0.20747    0.64740    0.31737   1.00
O2       0.49189    0.75362    0.27848   1.00
O2       0.43994    0.79253    0.31737   1.00
O2       0.44893    0.66204    0.31776   1.00
O2       0.26172    0.50811    0.27848   1.00
O2       0.21312    0.55107    0.31776   1.00
O2       0.35260    0.56006    0.31737   1.00
C1       0.24723    0.72687    0.26025   1.00
C1       0.47963    0.75277    0.26025   1.00
C1       0.27313    0.52037    0.26025   1.00
C1       0.39997    0.81063    0.32339   1.00
C1       0.18937    0.58933    0.32339   1.00
C1       0.41067    0.60003    0.32339   1.00
O1       0.33333    0.66667    0.54167   1.00
Zn      0.33333    0.66667    0.57078   1.00
Zn      0.37621    0.61515    0.53275   1.00
Zn      0.38485    0.76106    0.53275   1.00
Zn      0.23894    -0.37621   0.53275   1.00
O2       0.35943    0.60527    0.58080   1.00
O2       0.39473    0.75417    0.58080   1.00
O2       0.24583    0.64057    0.58080   1.00
O2       0.40494    0.57972    0.55486   1.00
O2       0.45355    0.67129    0.51557   1.00
O2       0.31407    0.54080    0.51596   1.00
O2       0.42028    0.82523    0.55486   1.00
O2       0.45920    0.77327    0.51596   1.00
O2       0.32871    -0.21774   0.51557   1.00
O2       0.17477    0.59506    0.55486   1.00
O2       0.21774    0.54645    0.51557   1.00
O2       0.22673    -0.31407   0.51596   1.00
C1       0.39353    0.58057    0.57309   1.00
C1       0.41943    0.81297    0.57309   1.00
C1       0.18703    0.60647    0.57309   1.00
C1       0.47730    0.73330    0.50994   1.00
C1       0.25600    0.52270    0.50994   1.00
C1       0.26670    -0.25600   0.50994   1.00
O1       0.33333    0.66667    0.04167   1.00
Zn      0.33333    0.66667    0.07078   1.00
Zn      0.38485    -0.37621   0.03275   1.00
Zn      0.23894    0.61515    0.03275   1.00
Zn      0.37621    0.76106    0.03275   1.00
O2       0.39473    0.64057    0.08080   1.00
O2       0.24583    0.60527    0.08080   1.00
O2       0.35943    0.75417    0.08080   1.00
O2       0.42028    0.59506    0.05486   1.00
O2       0.32871    0.54645    0.01557   1.00
O2       0.45920    -0.31407   0.01596   1.00
O2       0.17477    0.57972    0.05486   1.00
O2       0.22673    0.54080    0.01596   1.00
O2       0.21774    0.67129    0.01557   1.00
O2       0.40494    0.82523    0.05486   1.00
O2       0.45355    -0.21774   0.01557   1.00
O2       0.31407    0.77327    0.01596   1.00
C1       0.41943    0.60647    0.07309   1.00
C1       0.18703    0.58057    0.07309   1.00
C1       0.39353    0.81297    0.07309   1.00
C1       0.26670    0.52270    0.00994   1.00
C1       0.47730    -0.25600   0.00994   1.00
C1       0.25600    0.73330    0.00994   1.00
O1       0.33333    0.66667    0.79167   1.00
Zn      0.33333    0.66667    0.76256   1.00
Zn      0.29046    0.71818    0.80058   1.00
Zn      0.28182    0.57227    0.80058   1.00
Zn      0.42773    0.70954    0.80058   1.00
O2       0.30723    0.72807    0.75254   1.00
O2       0.27193    0.57917    0.75254   1.00
O2       0.42083    0.69277    0.75254   1.00
O2       0.26172    0.75362    0.77848   1.00
O2       0.21312    0.66204    0.81776   1.00
O2       0.35260    0.79253    0.81737   1.00
O2       0.24638    0.50811    0.77848   1.00
O2       0.20747    0.56006    0.81737   1.00
O2       0.33796    0.55107    0.81776   1.00
O2       0.49189    0.73828    0.77848   1.00
O2       0.44893    0.78688    0.81776   1.00
O2       0.43994    0.64740    0.81737   1.00
C1       0.27313    0.75277    0.76025   1.00
C1       0.24723    0.52037    0.76025   1.00
C1       0.47963    0.72687    0.76025   1.00
C1       0.18937    0.60003    0.82339   1.00
C1       0.41067    0.81063    0.82339   1.00
C1       0.39997    0.58933    0.82339   1.00
C2       -0.21664   0.53945    0.50400   1.00
C3       -0.23300   0.58816    0.50464   1.00
H1       -0.26328   0.58777    0.49504   1.00
C3       -0.17369   0.53991    0.51843   1.00
H1       -0.16236   0.50571    0.51844   1.00
C3a      -0.20701   0.63906    0.51899   1.00
H1       -0.21859   0.67306    0.51948   1.00
C3b      -0.14650   0.58987    0.53317   1.00
H1       -0.11795   0.58933    0.54321   1.00
C6       -0.16402   0.63962    0.53382   1.00
C6       -0.13595   0.69280    0.54975   1.00
C3c      -0.17184   0.68442    0.56753   1.00
H1       -0.21110   0.64314    0.57021   1.00
C3d      -0.07381   0.75125    0.54603   1.00
H1       -0.04873   0.75881    0.53419   1.00
C3       -0.14571   0.73654    0.58172   1.00
H1       -0.16915   0.73066    0.59385   1.00
C3       -0.05090   0.80371    0.56123   1.00
H1       -0.01016   0.84405    0.55915   1.00
C2       -0.08630   0.79640    0.57845   1.00
C2       0.46055    0.24391    0.50400   1.00
C3       0.41184    0.17884    0.50464   1.00
H1       0.41223    0.14895    0.49504   1.00
C3       0.46009    0.28640    0.51843   1.00
H1       0.49429    0.33193    0.51844   1.00
C3a      0.36094    0.15393    0.51899   1.00
H1       0.32694    0.10835    0.51948   1.00
C3b      0.41013    0.26363    0.53317   1.00
H1       0.41067    0.29272    0.54321   1.00
C6       0.36038    0.19636    0.53382   1.00
C6       0.30720    0.17125    0.54975   1.00
C3c      0.31558    0.14374    0.56753   1.00
H1       0.35686    0.14575    0.57021   1.00
C3d      0.24875    0.17494    0.54603   1.00
H1       0.24119    0.19247    0.53419   1.00
C3       0.26346    0.11775    0.58172   1.00
H1       0.26934    0.10019    0.59385   1.00
C3       0.19629    0.14539    0.56123   1.00
H1       0.15595    0.14579    0.55915   1.00
C2       0.20360    0.11730    0.57845   1.00
C2       0.75609    0.21664    0.50400   1.00
C3       0.82116    0.23300    0.50464   1.00
H1       0.85105    0.26328    0.49504   1.00
C3       0.71360    0.17369    0.51843   1.00
H1       0.66807    0.16236    0.51844   1.00
C3a      0.84607    0.20701    0.51899   1.00
H1       0.89165    0.21859    0.51948   1.00
C3b      0.73637    0.14650    0.53317   1.00
H1       0.70728    0.11795    0.54321   1.00
C6       0.80364    0.16402    0.53382   1.00
C6       0.82875    0.13595    0.54975   1.00
C3c      0.85626    0.17184    0.56753   1.00
H1       0.85425    0.21110    0.57021   1.00
C3d      0.82506    0.07381    0.54603   1.00
H1       0.80753    0.04873    0.53419   1.00
C3       0.88225    0.14571    0.58172   1.00
H1       0.89981    0.16915    0.59385   1.00
C3       0.85461    0.05090    0.56123   1.00
H1       0.85421    0.01016    0.55915   1.00
C2       0.88270    0.08630    0.57845   1.00
C2       0.53945    -0.21664   0.99600   1.00
C3       0.58816    -0.23300   0.99536   1.00
H1       0.58777    -0.26328   0.00496   1.00
C3       0.53991    -0.17369   0.98157   1.00
H1       0.50571    -0.16236   0.98156   1.00
C3a      0.63906    -0.20701   0.98101   1.00
H1       0.67306    -0.21859   0.98052   1.00
C3b      0.58987    -0.14650   0.96683   1.00
H1       0.58933    -0.11795   0.95679   1.00
C6       0.63962    -0.16402   0.96618   1.00
C6       0.69280    -0.13595   0.95025   1.00
C3c      0.68442    -0.17184   0.93247   1.00
H1       0.64314    -0.21110   0.92979   1.00
C3d      0.75125    -0.07381   0.95397   1.00
H1       0.75881    -0.04873   0.96581   1.00
C3       0.73654    -0.14571   0.91828   1.00
H1       0.73066    -0.16915   0.90615   1.00
C3       0.80371    -0.05090   0.93877   1.00
H1       0.84405    -0.01016   0.94085   1.00
C2       0.79640    -0.08630   0.92155   1.00
C2       0.24391    0.46055    0.99600   1.00
C3       0.17884    0.41184    0.99536   1.00
H1       0.14895    0.41223    0.00496   1.00
C3       0.28640    0.46009    0.98157   1.00
H1       0.33193    0.49429    0.98156   1.00
C3a      0.15393    0.36094    0.98101   1.00
H1       0.10835    0.32694    0.98052   1.00
C3b      0.26363    0.41013    0.96683   1.00
H1       0.29272    0.41067    0.95679   1.00
C6       0.19636    0.36038    0.96618   1.00
C6       0.17125    0.30720    0.95025   1.00
C3c      0.14374    0.31558    0.93247   1.00
H1       0.14575    0.35686    0.92979   1.00
C3d      0.17494    0.24875    0.95397   1.00
H1       0.19247    0.24119    0.96581   1.00
C3       0.11775    0.26346    0.91828   1.00
H1       0.10019    0.26934    0.90615   1.00
C3       0.14539    0.19629    0.93877   1.00
H1       0.14579    0.15595    0.94085   1.00
C2       0.11730    0.20360    0.92155   1.00
C2       0.21664    0.75609    0.99600   1.00
C3       0.23300    0.82116    0.99536   1.00
H1       0.26328    0.85105    0.00496   1.00
C3       0.17369    0.71360    0.98157   1.00
H1       0.16236    0.66807    0.98156   1.00
C3a      0.20701    0.84607    0.98101   1.00
H1       0.21859    0.89165    0.98052   1.00
C3b      0.14650    0.73637    0.96683   1.00
H1       0.11795    0.70728    0.95679   1.00
C6       0.16402    0.80364    0.96618   1.00
C6       0.13595    0.82875    0.95025   1.00
C3c      0.17184    0.85626    0.93247   1.00
H1       0.21110    0.85425    0.92979   1.00
C3d      0.07381    0.82506    0.95397   1.00
H1       0.04873    0.80753    0.96581   1.00
C3       0.14571    0.88225    0.91828   1.00
H1       0.16915    0.89981    0.90615   1.00
C3       0.05090    0.85461    0.93877   1.00
H1       0.01016    0.85421    0.94085   1.00
C2       0.08630    0.88270    0.92155   1.00
C2       0.21664    0.46055    0.49600   1.00
C3       0.23300    0.41184    0.49536   1.00
H1       0.26328    0.41223    0.50496   1.00
C3       0.17369    0.46009    0.48157   1.00
H1       0.16236    0.49429    0.48156   1.00
C3a      0.20701    0.36094    0.48101   1.00
H1       0.21859    0.32694    0.48052   1.00
C3b      0.14650    0.41013    0.46683   1.00
H1       0.11795    0.41067    0.45679   1.00
C6       0.16402    0.36038    0.46618   1.00
C6       0.13595    0.30720    0.45025   1.00
C3c      0.17184    0.31558    0.43247   1.00
H1       0.21110    0.35686    0.42979   1.00
C3d      0.07381    0.24875    0.45397   1.00
H1       0.04873    0.24119    0.46581   1.00
C3       0.14571    0.26346    0.41828   1.00
H1       0.16915    0.26934    0.40615   1.00
C3       0.05090    0.19629    0.43877   1.00
H1       0.01016    0.15595    0.44085   1.00
C2       0.08630    0.20360    0.42155   1.00
C2       0.53945    0.75609    0.49600   1.00
C3       0.58816    0.82116    0.49536   1.00
H1       0.58777    0.85105    0.50496   1.00
C3       0.53991    0.71360    0.48157   1.00
H1       0.50571    0.66807    0.48156   1.00
C3a      0.63906    0.84607    0.48101   1.00
H1       0.67306    0.89165    0.48052   1.00
C3b      0.58987    0.73637    0.46683   1.00
H1       0.58933    0.70728    0.45679   1.00
C6       0.63962    0.80364    0.46618   1.00
C6       0.69280    0.82875    0.45025   1.00
C3c      0.68442    0.85626    0.43247   1.00
H1       0.64314    0.85425    0.42979   1.00
C3d      0.75125    0.82506    0.45397   1.00
H1       0.75881    0.80753    0.46581   1.00
C3       0.73654    0.88225    0.41828   1.00
H1       0.73066    0.89981    0.40615   1.00
C3       0.80371    0.85461    0.43877   1.00
H1       0.84405    0.85421    0.44085   1.00
C2       0.79640    0.88270    0.42155   1.00
C2       0.24391    -0.21664   0.49600   1.00
C3       0.17884    -0.23300   0.49536   1.00
H1       0.14895    -0.26328   0.50496   1.00
C3       0.28640    -0.17369   0.48157   1.00
H1       0.33193    -0.16236   0.48156   1.00
C3a      0.15393    -0.20701   0.48101   1.00
H1       0.10835    -0.21859   0.48052   1.00
C3b      0.26363    -0.14650   0.46683   1.00
H1       0.29272    -0.11795   0.45679   1.00
C6       0.19636    -0.16402   0.46618   1.00
C6       0.17125    -0.13595   0.45025   1.00
C3c      0.14374    -0.17184   0.43247   1.00
H1       0.14575    -0.21110   0.42979   1.00
C3d      0.17494    -0.07381   0.45397   1.00
H1       0.19247    -0.04873   0.46581   1.00
C3       0.11775    -0.14571   0.41828   1.00
H1       0.10019    -0.16915   0.40615   1.00
C3       0.14539    -0.05090   0.43877   1.00
H1       0.14579    -0.01016   0.44085   1.00
C2       0.11730    -0.08630   0.42155   1.00
C2       0.46055    0.21664    0.00400   1.00
C3       0.41184    0.23300    0.00464   1.00
H1       0.41223    0.26328    0.99504   1.00
C3       0.46009    0.17369    0.01843   1.00
H1       0.49429    0.16236    0.01844   1.00
C3a      0.36094    0.20701    0.01899   1.00
H1       0.32694    0.21859    0.01948   1.00
C3b      0.41013    0.14650    0.03317   1.00
H1       0.41067    0.11795    0.04321   1.00
C6       0.36038    0.16402    0.03382   1.00
C6       0.30720    0.13595    0.04975   1.00
C3c      0.31558    0.17184    0.06753   1.00
H1       0.35686    0.21110    0.07021   1.00
C3d      0.24875    0.07381    0.04603   1.00
H1       0.24119    0.04873    0.03419   1.00
C3       0.26346    0.14571    0.08172   1.00
H1       0.26934    0.16915    0.09385   1.00
C3       0.19629    0.05090    0.06123   1.00
H1       0.15595    0.01016    0.05915   1.00
C2       0.20360    0.08630    0.07845   1.00
C2       0.75609    0.53945    0.00400   1.00
C3       0.82116    0.58816    0.00464   1.00
H1       0.85105    0.58777    0.99504   1.00
C3       0.71360    0.53991    0.01843   1.00
H1       0.66807    0.50571    0.01844   1.00
C3a      0.84607    0.63906    0.01899   1.00
H1       0.89165    0.67306    0.01948   1.00
C3b      0.73637    0.58987    0.03317   1.00
H1       0.70728    0.58933    0.04321   1.00
C6       0.80364    0.63962    0.03382   1.00
C6       0.82875    0.69280    0.04975   1.00
C3c      0.85626    0.68442    0.06753   1.00
H1       0.85425    0.64314    0.07021   1.00
C3d      0.82506    0.75125    0.04603   1.00
H1       0.80753    0.75881    0.03419   1.00
C3       0.88225    0.73654    0.08172   1.00
H1       0.89981    0.73066    0.09385   1.00
C3       0.85461    0.80371    0.06123   1.00
H1       0.85421    0.84405    0.05915   1.00
C2       0.88270    0.79640    0.07845   1.00
C2       -0.21664   0.24391    0.00400   1.00
C3       -0.23300   0.17884    0.00464   1.00
H1       -0.26328   0.14895    0.99504   1.00
C3       -0.17369   0.28640    0.01843   1.00
H1       -0.16236   0.33193    0.01844   1.00
C3a      -0.20701   0.15393    0.01899   1.00
H1       -0.21859   0.10835    0.01948   1.00
C3b      -0.14650   0.26363    0.03317   1.00
H1       -0.11795   0.29272    0.04321   1.00
C6       -0.16402   0.19636    0.03382   1.00
C6       -0.13595   0.17125    0.04975   1.00
C3c      -0.17184   0.14374    0.06753   1.00
H1       -0.21110   0.14575    0.07021   1.00
C3d      -0.07381   0.17494    0.04603   1.00
H1       -0.04873   0.19247    0.03419   1.00
C3       -0.14571   0.11775    0.08172   1.00
H1       -0.16915   0.10019    0.09385   1.00
C3       -0.05090   0.14539    0.06123   1.00
H1       -0.01016   0.14579    0.05915   1.00
C2       -0.08630   0.11730    0.07845   1.00
C2       0.45003    0.87278    0.83733   1.00
C3       0.43367    0.92149    0.83797   1.00
H1       0.40339    0.92110    0.82837   1.00
C3       0.49298    0.87324    0.85176   1.00
H1       0.50431    0.83904    0.85177   1.00
C3a      0.45966    0.97239    0.85232   1.00
H1       0.44808    1.00639    0.85281   1.00
C3b      0.52017    0.92320    0.86650   1.00
H1       0.54872    0.92266    0.87654   1.00
C6       0.50265    0.97295    0.86715   1.00
C6       0.53072    0.02613    0.88308   1.00
C3c      0.49483    0.01775    0.90086   1.00
H1       0.45557    -0.02353   0.90354   1.00
C3d      0.59286    0.08458    0.87936   1.00
H1       0.61794    0.09214    0.86752   1.00
C3       0.52096    0.06987    0.91505   1.00
H1       0.49752    0.06399    0.92718   1.00
C3       0.61577    0.13704    0.89456   1.00
H1       0.65651    0.17738    0.89248   1.00
C2       0.58037    0.12973    0.91178   1.00
C2       0.12722    0.57724    0.83733   1.00
C3       0.07851    0.51217    0.83797   1.00
H1       0.07890    0.48228    0.82837   1.00
C3       0.12676    0.61973    0.85176   1.00
H1       0.16096    0.66526    0.85177   1.00
C3a      0.02761    0.48726    0.85232   1.00
H1       -0.00639   0.44168    0.85281   1.00
C3b      0.07680    0.59696    0.86650   1.00
H1       0.07734    0.62605    0.87654   1.00
C6       0.02705    0.52969    0.86715   1.00
C6       0.97387    0.50458    0.88308   1.00
C3c      0.98225    0.47707    0.90086   1.00
H1       1.02353    0.47908    0.90354   1.00
C3d      0.91542    0.50827    0.87936   1.00
H1       0.90786    0.52580    0.86752   1.00
C3       0.93013    0.45108    0.91505   1.00
H1       0.93601    0.43352    0.92718   1.00
C3       0.86296    0.47872    0.89456   1.00
H1       0.82262    0.47912    0.89248   1.00
C2       0.87027    0.45063    0.91178   1.00
C2       0.42276    0.54997    0.83733   1.00
C3       0.48783    0.56633    0.83797   1.00
H1       0.51772    0.59661    0.82837   1.00
C3       0.38027    0.50702    0.85176   1.00
H1       0.33474    0.49569    0.85177   1.00
C3a      0.51274    0.54034    0.85232   1.00
H1       0.55832    0.55192    0.85281   1.00
C3b      0.40304    0.47983    0.86650   1.00
H1       0.37395    0.45128    0.87654   1.00
C6       0.47031    0.49735    0.86715   1.00
C6       0.49542    0.46928    0.88308   1.00
C3c      0.52293    0.50517    0.90086   1.00
H1       0.52092    0.54443    0.90354   1.00
C3d      0.49173    0.40714    0.87936   1.00
H1       0.47420    0.38206    0.86752   1.00
C3       0.54892    0.47904    0.91505   1.00
H1       0.56648    0.50248    0.92718   1.00
C3       0.52128    0.38423    0.89456   1.00
H1       0.52088    0.34349    0.89248   1.00
C2       0.54937    0.41963    0.91178   1.00
C2       0.20612    0.11669    0.32933   1.00
C3       0.25483    0.10033    0.32869   1.00
H1       0.25444    0.07005    0.33829   1.00
C3       0.20658    0.15964    0.31490   1.00
H1       0.17238    0.17097    0.31489   1.00
C3a      0.30573    0.12632    0.31434   1.00
H1       0.33973    0.11474    0.31385   1.00
C3b      0.25654    0.18683    0.30016   1.00
H1       0.25600    0.21538    0.29012   1.00
C6       0.30629    0.16931    0.29951   1.00
C6       0.35947    0.19738    0.28358   1.00
C3c      0.35109    0.16149    0.26580   1.00
H1       0.30981    0.12223    0.26312   1.00
C3d      0.41792    0.25952    0.28730   1.00
H1       0.42548    0.28460    0.29914   1.00
C3       0.40321    0.18762    0.25161   1.00
H1       0.39733    0.16418    0.23948   1.00
C3       0.47038    0.28243    0.27210   1.00
H1       0.51072    0.32317    0.27418   1.00
C2       0.46307    0.24703    0.25488   1.00
C2       0.91058    0.79388    0.32933   1.00
C3       0.84551    0.74517    0.32869   1.00
H1       0.81562    0.74556    0.33829   1.00
C3       0.95307    0.79342    0.31490   1.00
H1       0.99860    0.82762    0.31489   1.00
C3a      0.82060    0.69427    0.31434   1.00
H1       0.77502    0.66027    0.31385   1.00
C3b      0.93030    0.74346    0.30016   1.00
H1       0.95939    0.74400    0.29012   1.00
C6       0.86303    0.69371    0.29951   1.00
C6       0.83792    0.64053    0.28358   1.00
C3c      0.81041    0.64891    0.26580   1.00
H1       0.81242    0.69019    0.26312   1.00
C3d      0.84161    0.58208    0.28730   1.00
H1       0.85914    0.57452    0.29914   1.00
C3       0.78442    0.59679    0.25161   1.00
H1       0.76686    0.60267    0.23948   1.00
C3       0.81206    0.52962    0.27210   1.00
H1       0.81246    0.48928    0.27418   1.00
C2       0.78397    0.53693    0.25488   1.00
C2       0.88331    0.08942    0.32933   1.00
C3       0.89967    0.15449    0.32869   1.00
H1       0.92995    0.18438    0.33829   1.00
C3       0.84036    0.04693    0.31490   1.00
H1       0.82903    0.00140    0.31489   1.00
C3a      0.87368    0.17940    0.31434   1.00
H1       0.88526    0.22498    0.31385   1.00
C3b      0.81317    0.06970    0.30016   1.00
H1       0.78462    0.04061    0.29012   1.00
C6       0.83069    0.13697    0.29951   1.00
C6       0.80262    0.16208    0.28358   1.00
C3c      0.83851    0.18959    0.26580   1.00
H1       0.87777    0.18758    0.26312   1.00
C3d      0.74048    0.15839    0.28730   1.00
H1       0.71540    0.14086    0.29914   1.00
C3       0.81238    0.21558    0.25161   1.00
H1       0.83582    0.23314    0.23948   1.00
C3       0.71757    0.18794    0.27210   1.00
H1       0.67683    0.18754    0.27418   1.00
C2       0.75297    0.21603    0.25488   1.00
C2       0.88331    0.79388    0.82933   1.00
C3       0.89967    0.74517    0.82869   1.00
H1       0.92995    0.74556    0.83829   1.00
C3       0.84036    0.79342    0.81490   1.00
H1       0.82903    0.82762    0.81489   1.00
C3a      0.87368    0.69427    0.81434   1.00
H1       0.88526    0.66027    0.81385   1.00
C3b      0.81317    0.74346    0.80016   1.00
H1       0.78462    0.74400    0.79012   1.00
C6       0.83069    0.69371    0.79951   1.00
C6       0.80262    0.64053    0.78358   1.00
C3c      0.83851    0.64891    0.76580   1.00
H1       0.87777    0.69019    0.76312   1.00
C3d      0.74048    0.58208    0.78730   1.00
H1       0.71540    0.57452    0.79914   1.00
C3       0.81238    0.59679    0.75161   1.00
H1       0.83582    0.60267    0.73948   1.00
C3       0.71757    0.52962    0.77210   1.00
H1       0.67683    0.48928    0.77418   1.00
C2       0.75297    0.53693    0.75488   1.00
C2       0.20612    0.08942    0.82933   1.00
C3       0.25483    0.15449    0.82869   1.00
H1       0.25444    0.18438    0.83829   1.00
C3       0.20658    0.04693    0.81490   1.00
H1       0.17238    0.00140    0.81489   1.00
C3a      0.30573    0.17940    0.81434   1.00
H1       0.33973    0.22498    0.81385   1.00
C3b      0.25654    0.06970    0.80016   1.00
H1       0.25600    0.04061    0.79012   1.00
C6       0.30629    0.13697    0.79951   1.00
C6       0.35947    0.16208    0.78358   1.00
C3c      0.35109    0.18959    0.76580   1.00
H1       0.30981    0.18758    0.76312   1.00
C3d      0.41792    0.15839    0.78730   1.00
H1       0.42548    0.14086    0.79914   1.00
C3       0.40321    0.21558    0.75161   1.00
H1       0.39733    0.23314    0.73948   1.00
C3       0.47038    0.18794    0.77210   1.00
H1       0.51072    0.18754    0.77418   1.00
C2       0.46307    0.21603    0.75488   1.00
C2       0.91058    0.11669    0.82933   1.00
C3       0.84551    0.10033    0.82869   1.00
H1       0.81562    0.07005    0.83829   1.00
C3       0.95307    0.15964    0.81490   1.00
H1       0.99860    0.17097    0.81489   1.00
C3a      0.82060    0.12632    0.81434   1.00
H1       0.77502    0.11474    0.81385   1.00
C3b      0.93030    0.18683    0.80016   1.00
H1       0.95939    0.21538    0.79012   1.00
C6       0.86303    0.16931    0.79951   1.00
C6       0.83792    0.19738    0.78358   1.00
C3c      0.81041    0.16149    0.76580   1.00
H1       0.81242    0.12223    0.76312   1.00
C3d      0.84161    0.25952    0.78730   1.00
H1       0.85914    0.28460    0.79914   1.00
C3       0.78442    0.18762    0.75161   1.00
H1       0.76686    0.16418    0.73948   1.00
C3       0.81206    0.28243    0.77210   1.00
H1       0.81246    0.32317    0.77418   1.00
C2       0.78397    0.24703    0.75488   1.00
C2       0.12722    0.54997    0.33733   1.00
C3       0.07851    0.56633    0.33797   1.00
H1       0.07890    0.59661    0.32837   1.00
C3       0.12676    0.50702    0.35176   1.00
H1       0.16096    0.49569    0.35177   1.00
C3a      0.02761    0.54034    0.35232   1.00
H1       -0.00639   0.55192    0.35281   1.00
C3b      0.07680    0.47983    0.36650   1.00
H1       0.07734    0.45128    0.37654   1.00
C6       0.02705    0.49735    0.36715   1.00
C6       0.97387    0.46928    0.38308   1.00
C3c      0.98225    0.50517    0.40086   1.00
H1       1.02353    0.54443    0.40354   1.00
C3d      0.91542    0.40714    0.37936   1.00
H1       0.90786    0.38206    0.36752   1.00
C3       0.93013    0.47904    0.41505   1.00
H1       0.93601    0.50248    0.42718   1.00
C3       0.86296    0.38423    0.39456   1.00
H1       0.82262    0.34349    0.39248   1.00
C2       0.87027    0.41963    0.41178   1.00
C2       0.42276    0.87278    0.33733   1.00
C3       0.48783    0.92149    0.33797   1.00
H1       0.51772    0.92110    0.32837   1.00
C3       0.38027    0.87324    0.35176   1.00
H1       0.33474    0.83904    0.35177   1.00
C3a      0.51274    0.97239    0.35232   1.00
H1       0.55832    1.00639    0.35281   1.00
C3b      0.40304    0.92320    0.36650   1.00
H1       0.37395    0.92266    0.37654   1.00
C6       0.47031    0.97295    0.36715   1.00
C6       0.49542    0.02613    0.38308   1.00
C3c      0.52293    0.01775    0.40086   1.00
H1       0.52092    -0.02353   0.40354   1.00
C3d      0.49173    0.08458    0.37936   1.00
H1       0.47420    0.09214    0.36752   1.00
C3       0.54892    0.06987    0.41505   1.00
H1       0.56648    0.06399    0.42718   1.00
C3       0.52128    0.13704    0.39456   1.00
H1       0.52088    0.17738    0.39248   1.00
C2       0.54937    0.12973    0.41178   1.00
C2       0.45003    0.57724    0.33733   1.00
C3       0.43367    0.51217    0.33797   1.00
H1       0.40339    0.48228    0.32837   1.00
C3       0.49298    0.61973    0.35176   1.00
H1       0.50431    0.66526    0.35177   1.00
C3a      0.45966    0.48726    0.35232   1.00
H1       0.44808    0.44168    0.35281   1.00
C3b      0.52017    0.59696    0.36650   1.00
H1       0.54872    0.62605    0.37654   1.00
C6       0.50265    0.52969    0.36715   1.00
C6       0.53072    0.50458    0.38308   1.00
C3c      0.49483    0.47707    0.40086   1.00
H1       0.45557    0.47908    0.40354   1.00
C3d      0.59286    0.50827    0.37936   1.00
H1       0.61794    0.52580    0.36752   1.00
C3       0.52096    0.45108    0.41505   1.00
H1       0.49752    0.43352    0.42718   1.00
C3       0.61577    0.47872    0.39456   1.00
H1       0.65651    0.47912    0.39248   1.00
C2       0.58037    0.45063    0.41178   1.00
C2       0.11669    0.20612    0.17067   1.00
C3       0.10033    0.25483    0.17131   1.00
H1       0.07005    0.25444    0.16171   1.00
C3       0.15964    0.20658    0.18510   1.00
H1       0.17097    0.17238    0.18511   1.00
C3a      0.12632    0.30573    0.18566   1.00
H1       0.11474    0.33973    0.18615   1.00
C3b      0.18683    0.25654    0.19984   1.00
H1       0.21538    0.25600    0.20988   1.00
C6       0.16931    0.30629    0.20049   1.00
C6       0.19738    0.35947    0.21642   1.00
C3c      0.16149    0.35109    0.23420   1.00
H1       0.12223    0.30981    0.23688   1.00
C3d      0.25952    0.41792    0.21270   1.00
H1       0.28460    0.42548    0.20086   1.00
C3       0.18762    0.40321    0.24839   1.00
H1       0.16418    0.39733    0.26052   1.00
C3       0.28243    0.47038    0.22790   1.00
H1       0.32317    0.51072    0.22582   1.00
C2       0.24703    0.46307    0.24512   1.00
C2       0.79388    0.91058    0.17067   1.00
C3       0.74517    0.84551    0.17131   1.00
H1       0.74556    0.81562    0.16171   1.00
C3       0.79342    0.95307    0.18510   1.00
H1       0.82762    0.99860    0.18511   1.00
C3a      0.69427    0.82060    0.18566   1.00
H1       0.66027    0.77502    0.18615   1.00
C3b      0.74346    0.93030    0.19984   1.00
H1       0.74400    0.95939    0.20988   1.00
C6       0.69371    0.86303    0.20049   1.00
C6       0.64053    0.83792    0.21642   1.00
C3c      0.64891    0.81041    0.23420   1.00
H1       0.69019    0.81242    0.23688   1.00
C3d      0.58208    0.84161    0.21270   1.00
H1       0.57452    0.85914    0.20086   1.00
C3       0.59679    0.78442    0.24839   1.00
H1       0.60267    0.76686    0.26052   1.00
C3       0.52962    0.81206    0.22790   1.00
H1       0.48928    0.81246    0.22582   1.00
C2       0.53693    0.78397    0.24512   1.00
C2       0.08942    0.88331    0.17067   1.00
C3       0.15449    0.89967    0.17131   1.00
H1       0.18438    0.92995    0.16171   1.00
C3       0.04693    0.84036    0.18510   1.00
H1       0.00140    0.82903    0.18511   1.00
C3a      0.17940    0.87368    0.18566   1.00
H1       0.22498    0.88526    0.18615   1.00
C3b      0.06970    0.81317    0.19984   1.00
H1       0.04061    0.78462    0.20988   1.00
C6       0.13697    0.83069    0.20049   1.00
C6       0.16208    0.80262    0.21642   1.00
C3c      0.18959    0.83851    0.23420   1.00
H1       0.18758    0.87777    0.23688   1.00
C3d      0.15839    0.74048    0.21270   1.00
H1       0.14086    0.71540    0.20086   1.00
C3       0.21558    0.81238    0.24839   1.00
H1       0.23314    0.83582    0.26052   1.00
C3       0.18794    0.71757    0.22790   1.00
H1       0.18754    0.67683    0.22582   1.00
C2       0.21603    0.75297    0.24512   1.00
C2       0.87278    0.45003    0.66267   1.00
C3       0.92149    0.43367    0.66203   1.00
H1       0.92110    0.40339    0.67163   1.00
C3       0.87324    0.49298    0.64824   1.00
H1       0.83904    0.50431    0.64823   1.00
C3a      0.97239    0.45966    0.64768   1.00
H1       1.00639    0.44808    0.64719   1.00
C3b      0.92320    0.52017    0.63350   1.00
H1       0.92266    0.54872    0.62346   1.00
C6       0.97295    0.50265    0.63285   1.00
C6       0.02613    0.53072    0.61692   1.00
C3c      0.01775    0.49483    0.59914   1.00
H1       -0.02353   0.45557    0.59646   1.00
C3d      0.08458    0.59286    0.62064   1.00
H1       0.09214    0.61794    0.63248   1.00
C3       0.06987    0.52096    0.58495   1.00
H1       0.06399    0.49752    0.57282   1.00
C3       0.13704    0.61577    0.60544   1.00
H1       0.17738    0.65651    0.60752   1.00
C2       0.12973    0.58037    0.58822   1.00
C2       0.57724    0.12722    0.66267   1.00
C3       0.51217    0.07851    0.66203   1.00
H1       0.48228    0.07890    0.67163   1.00
C3       0.61973    0.12676    0.64824   1.00
H1       0.66526    0.16096    0.64823   1.00
C3a      0.48726    0.02761    0.64768   1.00
H1       0.44168    -0.00639   0.64719   1.00
C3b      0.59696    0.07680    0.63350   1.00
H1       0.62605    0.07734    0.62346   1.00
C6       0.52969    0.02705    0.63285   1.00
C6       0.50458    0.97387    0.61692   1.00
C3c      0.47707    0.98225    0.59914   1.00
H1       0.47908    1.02353    0.59646   1.00
C3d      0.50827    0.91542    0.62064   1.00
H1       0.52580    0.90786    0.63248   1.00
C3       0.45108    0.93013    0.58495   1.00
H1       0.43352    0.93601    0.57282   1.00
C3       0.47872    0.86296    0.60544   1.00
H1       0.47912    0.82262    0.60752   1.00
C2       0.45063    0.87027    0.58822   1.00
C2       0.54997    0.42276    0.66267   1.00
C3       0.56633    0.48783    0.66203   1.00
H1       0.59661    0.51772    0.67163   1.00
C3       0.50702    0.38027    0.64824   1.00
H1       0.49569    0.33474    0.64823   1.00
C3a      0.54034    0.51274    0.64768   1.00
H1       0.55192    0.55832    0.64719   1.00
C3b      0.47983    0.40304    0.63350   1.00
H1       0.45128    0.37395    0.62346   1.00
C6       0.49735    0.47031    0.63285   1.00
C6       0.46928    0.49542    0.61692   1.00
C3c      0.50517    0.52293    0.59914   1.00
H1       0.54443    0.52092    0.59646   1.00
C3d      0.40714    0.49173    0.62064   1.00
H1       0.38206    0.47420    0.63248   1.00
C3       0.47904    0.54892    0.58495   1.00
H1       0.50248    0.56648    0.57282   1.00
C3       0.38423    0.52128    0.60544   1.00
H1       0.34349    0.52088    0.60752   1.00
C2       0.41963    0.54937    0.58822   1.00
C2       0.54997    0.12722    0.16267   1.00
C3       0.56633    0.07851    0.16203   1.00
H1       0.59661    0.07890    0.17163   1.00
C3       0.50702    0.12676    0.14824   1.00
H1       0.49569    0.16096    0.14823   1.00
C3a      0.54034    0.02761    0.14768   1.00
H1       0.55192    -0.00639   0.14719   1.00
C3b      0.47983    0.07680    0.13350   1.00
H1       0.45128    0.07734    0.12346   1.00
C6       0.49735    0.02705    0.13285   1.00
C6       0.46928    0.97387    0.11692   1.00
C3c      0.50517    0.98225    0.09914   1.00
H1       0.54443    1.02353    0.09646   1.00
C3d      0.40714    0.91542    0.12064   1.00
H1       0.38206    0.90786    0.13248   1.00
C3       0.47904    0.93013    0.08495   1.00
H1       0.50248    0.93601    0.07282   1.00
C3       0.38423    0.86296    0.10544   1.00
H1       0.34349    0.82262    0.10752   1.00
C2       0.41963    0.87027    0.08822   1.00
C2       0.87278    0.42276    0.16267   1.00
C3       0.92149    0.48783    0.16203   1.00
H1       0.92110    0.51772    0.17163   1.00
C3       0.87324    0.38027    0.14824   1.00
H1       0.83904    0.33474    0.14823   1.00
C3a      0.97239    0.51274    0.14768   1.00
H1       1.00639    0.55832    0.14719   1.00
C3b      0.92320    0.40304    0.13350   1.00
H1       0.92266    0.37395    0.12346   1.00
C6       0.97295    0.47031    0.13285   1.00
C6       0.02613    0.49542    0.11692   1.00
C3c      0.01775    0.52293    0.09914   1.00
H1       -0.02353   0.52092    0.09646   1.00
C3d      0.08458    0.49173    0.12064   1.00
H1       0.09214    0.47420    0.13248   1.00
C3       0.06987    0.54892    0.08495   1.00
H1       0.06399    0.56648    0.07282   1.00
C3       0.13704    0.52128    0.10544   1.00
H1       0.17738    0.52088    0.10752   1.00
C2       0.12973    0.54937    0.08822   1.00
C2       0.57724    0.45003    0.16267   1.00
C3       0.51217    0.43367    0.16203   1.00
H1       0.48228    0.40339    0.17163   1.00
C3       0.61973    0.49298    0.14824   1.00
H1       0.66526    0.50431    0.14823   1.00
C3a      0.48726    0.45966    0.14768   1.00
H1       0.44168    0.44808    0.14719   1.00
C3b      0.59696    0.52017    0.13350   1.00
H1       0.62605    0.54872    0.12346   1.00
C6       0.52969    0.50265    0.13285   1.00
C6       0.50458    0.53072    0.11692   1.00
C3c      0.47707    0.49483    0.09914   1.00
H1       0.47908    0.45557    0.09646   1.00
C3d      0.50827    0.59286    0.12064   1.00
H1       0.52580    0.61794    0.13248   1.00
C3       0.45108    0.52096    0.08495   1.00
H1       0.43352    0.49752    0.07282   1.00
C3       0.47872    0.61577    0.10544   1.00
H1       0.47912    0.65651    0.10752   1.00
C2       0.45063    0.58037    0.08822   1.00
C2       0.79388    0.88331    0.67067   1.00
C3       0.74517    0.89967    0.67131   1.00
H1       0.74556    0.92995    0.66171   1.00
C3       0.79342    0.84036    0.68510   1.00
H1       0.82762    0.82903    0.68511   1.00
C3a      0.69427    0.87368    0.68566   1.00
H1       0.66027    0.88526    0.68615   1.00
C3b      0.74346    0.81317    0.69984   1.00
H1       0.74400    0.78462    0.70988   1.00
C6       0.69371    0.83069    0.70049   1.00
C6       0.64053    0.80262    0.71642   1.00
C3c      0.64891    0.83851    0.73420   1.00
H1       0.69019    0.87777    0.73688   1.00
C3d      0.58208    0.74048    0.71270   1.00
H1       0.57452    0.71540    0.70086   1.00
C3       0.59679    0.81238    0.74839   1.00
H1       0.60267    0.83582    0.76052   1.00
C3       0.52962    0.71757    0.72790   1.00
H1       0.48928    0.67683    0.72582   1.00
C2       0.53693    0.75297    0.74512   1.00
C2       0.08942    0.20612    0.67067   1.00
C3       0.15449    0.25483    0.67131   1.00
H1       0.18438    0.25444    0.66171   1.00
C3       0.04693    0.20658    0.68510   1.00
H1       0.00140    0.17238    0.68511   1.00
C3a      0.17940    0.30573    0.68566   1.00
H1       0.22498    0.33973    0.68615   1.00
C3b      0.06970    0.25654    0.69984   1.00
H1       0.04061    0.25600    0.70988   1.00
C6       0.13697    0.30629    0.70049   1.00
C6       0.16208    0.35947    0.71642   1.00
C3c      0.18959    0.35109    0.73420   1.00
H1       0.18758    0.30981    0.73688   1.00
C3d      0.15839    0.41792    0.71270   1.00
H1       0.14086    0.42548    0.70086   1.00
C3       0.21558    0.40321    0.74839   1.00
H1       0.23314    0.39733    0.76052   1.00
C3       0.18794    0.47038    0.72790   1.00
H1       0.18754    0.51072    0.72582   1.00
C2       0.21603    0.46307    0.74512   1.00
C2       0.11669    0.91058    0.67067   1.00
C3       0.10033    0.84551    0.67131   1.00
H1       0.07005    0.81562    0.66171   1.00
C3       0.15964    0.95307    0.68510   1.00
H1       0.17097    0.99860    0.68511   1.00
C3a      0.12632    0.82060    0.68566   1.00
H1       0.11474    0.77502    0.68615   1.00
C3b      0.18683    0.93030    0.69984   1.00
H1       0.21538    0.95939    0.70988   1.00
C6       0.16931    0.86303    0.70049   1.00
C6       0.19738    0.83792    0.71642   1.00
C3c      0.16149    0.81041    0.73420   1.00
H1       0.12223    0.81242    0.73688   1.00
C3d      0.25952    0.84161    0.71270   1.00
H1       0.28460    0.85914    0.70086   1.00
C3       0.18762    0.78442    0.74839   1.00
H1       0.16418    0.76686    0.76052   1.00
C3       0.28243    0.81206    0.72790   1.00
H1       0.32317    0.81246    0.72582   1.00
C2       0.24703    0.78397    0.74512   1.00
