data_IRMOF10_interpen_symm_ligand4lp_label_b_1.

_audit_creation_method             'generated by an auxiliary program of Tobunporous'

_symmetry_space_group_name_H-M     'P 1'
_symmetry_Int_Tables_number        1
_symmetry_cell_setting             triclinic

_cell_length_a                    22.6523
_cell_length_b                    22.6523
_cell_length_c                    65.9502
_cell_angle_alpha                 90.0000
_cell_angle_beta                  90.0000
_cell_angle_gamma                 120.0000

loop_
_atom_site_label
_atom_site_fract_x
_atom_site_fract_y
_atom_site_fract_z
_atom_site_occupancy
O1       0.00000    -0.00000   0.62500   1.00
Zn1      0.00000    -0.00000   0.59589   1.00
Zn1      0.94848    1.04288    0.63392   1.00
Zn1      0.09439    0.05152    0.63392   1.00
Zn1      -0.04288   0.90561    0.63392   1.00
O2       0.93860    0.02610    0.58587   1.00
O2       0.08750    0.06140    0.58587   1.00
O2       -0.02610   0.91250    0.58587   1.00
O2       0.91305    0.07161    0.61181   1.00
O2       0.00462    0.12022    0.65110   1.00
O2       0.87413    0.98074    0.65071   1.00
O2       0.15856    0.08695    0.61181   1.00
O2       0.10660    0.12587    0.65071   1.00
O2       0.11559    0.99538    0.65110   1.00
O2       -0.07161   0.84144    0.61181   1.00
O2       0.87978    0.88441    0.65110   1.00
O2       0.01926    0.89340    0.65071   1.00
C1       0.91390    0.06020    0.59358   1.00
C1       0.14630    0.08610    0.59358   1.00
C1       -0.06020   0.85370    0.59358   1.00
C1       0.06663    0.14397    0.65673   1.00
C1       0.85603    0.92267    0.65673   1.00
C1       0.07733    0.93337    0.65673   1.00
O1       -0.00000   0.00000    0.87500   1.00
Zn1      -0.00000   0.00000    0.90411   1.00
Zn1      1.04288    0.94848    0.86608   1.00
Zn1      0.05152    0.09439    0.86608   1.00
Zn1      0.90561    -0.04288   0.86608   1.00
O2       0.02610    0.93860    0.91413   1.00
O2       0.06140    0.08750    0.91413   1.00
O2       0.91250    -0.02610   0.91413   1.00
O2       0.07161    0.91305    0.88819   1.00
O2       0.12022    0.00462    0.84890   1.00
O2       0.98074    0.87413    0.84929   1.00
O2       0.08695    0.15856    0.88819   1.00
O2       0.12587    0.10660    0.84929   1.00
O2       0.99538    0.11559    0.84890   1.00
O2       0.84144    -0.07161   0.88819   1.00
O2       0.88441    0.87978    0.84890   1.00
O2       0.89340    0.01926    0.84929   1.00
C1       0.06020    0.91390    0.90642   1.00
C1       0.08610    0.14630    0.90642   1.00
C1       0.85370    -0.06020   0.90642   1.00
C1       0.14397    0.06663    0.84327   1.00
C1       0.92267    0.85603    0.84327   1.00
C1       0.93337    0.07733    0.84327   1.00
O1       0.00000    0.00000    0.37500   1.00
Zn1      0.00000    0.00000    0.40411   1.00
Zn1      0.05152    -0.04288   0.36608   1.00
Zn1      0.90561    0.94848    0.36608   1.00
Zn1      1.04288    0.09439    0.36608   1.00
O2       0.06140    -0.02610   0.41413   1.00
O2       0.91250    0.93860    0.41413   1.00
O2       0.02610    0.08750    0.41413   1.00
O2       0.08695    -0.07161   0.38819   1.00
O2       0.99538    0.87978    0.34890   1.00
O2       0.12587    0.01926    0.34929   1.00
O2       0.84144    0.91305    0.38819   1.00
O2       0.89340    0.87413    0.34929   1.00
O2       0.88441    0.00462    0.34890   1.00
O2       0.07161    0.15856    0.38819   1.00
O2       0.12022    0.11559    0.34890   1.00
O2       0.98074    0.10660    0.34929   1.00
C1       0.08610    -0.06020   0.40642   1.00
C1       0.85370    0.91390    0.40642   1.00
C1       0.06020    0.14630    0.40642   1.00
C1       0.93337    0.85603    0.34327   1.00
C1       0.14397    0.07733    0.34327   1.00
C1       0.92267    0.06663    0.34327   1.00
O1       0.00000    0.00000    0.12500   1.00
Zn1      0.00000    0.00000    0.09589   1.00
Zn1      -0.04288   0.05152    0.13392   1.00
Zn1      0.94848    0.90561    0.13392   1.00
Zn1      0.09439    1.04288    0.13392   1.00
O2       -0.02610   0.06140    0.08587   1.00
O2       0.93860    0.91250    0.08587   1.00
O2       0.08750    0.02610    0.08587   1.00
O2       -0.07161   0.08695    0.11181   1.00
O2       0.87978    0.99538    0.15110   1.00
O2       0.01926    0.12587    0.15071   1.00
O2       0.91305    0.84144    0.11181   1.00
O2       0.87413    0.89340    0.15071   1.00
O2       0.00462    0.88441    0.15110   1.00
O2       0.15856    0.07161    0.11181   1.00
O2       0.11559    0.12022    0.15110   1.00
O2       0.10660    0.98074    0.15071   1.00
C1       -0.06020   0.08610    0.09358   1.00
C1       0.91390    0.85370    0.09358   1.00
C1       0.14630    0.06020    0.09358   1.00
C1       0.85603    0.93337    0.15673   1.00
C1       0.07733    0.14397    0.15673   1.00
C1       0.06663    0.92267    0.15673   1.00
O1       0.66667    0.33333    0.95833   1.00
Zn1      0.66667    0.33333    0.92922   1.00
Zn1      0.61515    0.37621    0.96725   1.00
Zn1      0.76106    0.38485    0.96725   1.00
Zn1      -0.37621   0.23894    0.96725   1.00
O2       0.60527    0.35943    0.91920   1.00
O2       0.75417    0.39473    0.91920   1.00
O2       0.64057    0.24583    0.91920   1.00
O2       0.57972    0.40494    0.94514   1.00
O2       0.67129    0.45355    0.98443   1.00
O2       0.54080    0.31407    0.98404   1.00
O2       0.82523    0.42028    0.94514   1.00
O2       0.77327    0.45920    0.98404   1.00
O2       -0.21774   0.32871    0.98443   1.00
O2       0.59506    0.17477    0.94514   1.00
O2       0.54645    0.21774    0.98443   1.00
O2       -0.31407   0.22673    0.98404   1.00
C1       0.58057    0.39353    0.92691   1.00
C1       0.81297    0.41943    0.92691   1.00
C1       0.60647    0.18703    0.92691   1.00
C1       0.73330    0.47730    0.99006   1.00
C1       0.52270    0.25600    0.99006   1.00
C1       -0.25600   0.26670    0.99006   1.00
O1       0.66667    0.33333    0.20833   1.00
Zn1      0.66667    0.33333    0.23744   1.00
Zn1      0.70954    0.28182    0.19942   1.00
Zn1      0.71818    0.42773    0.19942   1.00
Zn1      0.57227    0.29046    0.19942   1.00
O2       0.69277    0.27193    0.24746   1.00
O2       0.72807    0.42083    0.24746   1.00
O2       0.57917    0.30723    0.24746   1.00
O2       0.73828    0.24638    0.22152   1.00
O2       0.78688    0.33796    0.18224   1.00
O2       0.64740    0.20747    0.18263   1.00
O2       0.75362    0.49189    0.22152   1.00
O2       0.79253    0.43994    0.18263   1.00
O2       0.66204    0.44893    0.18224   1.00
O2       0.50811    0.26172    0.22152   1.00
O2       0.55107    0.21312    0.18224   1.00
O2       0.56006    0.35260    0.18263   1.00
C1       0.72687    0.24723    0.23975   1.00
C1       0.75277    0.47963    0.23975   1.00
C1       0.52037    0.27313    0.23975   1.00
C1       0.81063    0.39997    0.17661   1.00
C1       0.58933    0.18937    0.17661   1.00
C1       0.60003    0.41067    0.17661   1.00
O1       0.66667    0.33333    0.70833   1.00
Zn1      0.66667    0.33333    0.73744   1.00
Zn1      0.71818    0.29046    0.69942   1.00
Zn1      0.57227    0.28182    0.69942   1.00
Zn1      0.70954    0.42773    0.69942   1.00
O2       0.72807    0.30723    0.74746   1.00
O2       0.57917    0.27193    0.74746   1.00
O2       0.69277    0.42083    0.74746   1.00
O2       0.75362    0.26172    0.72152   1.00
O2       0.66204    0.21312    0.68224   1.00
O2       0.79253    0.35260    0.68263   1.00
O2       0.50811    0.24638    0.72152   1.00
O2       0.56006    0.20747    0.68263   1.00
O2       0.55107    0.33796    0.68224   1.00
O2       0.73828    0.49189    0.72152   1.00
O2       0.78688    0.44893    0.68224   1.00
O2       0.64740    0.43994    0.68263   1.00
C1       0.75277    0.27313    0.73975   1.00
C1       0.52037    0.24723    0.73975   1.00
C1       0.72687    0.47963    0.73975   1.00
C1       0.60003    0.18937    0.67661   1.00
C1       0.81063    0.41067    0.67661   1.00
C1       0.58933    0.39997    0.67661   1.00
O1       0.66667    0.33333    0.45833   1.00
Zn1      0.66667    0.33333    0.42922   1.00
Zn1      -0.37621   0.38485    0.46725   1.00
Zn1      0.61515    0.23894    0.46725   1.00
Zn1      0.76106    0.37621    0.46725   1.00
O2       0.64057    0.39473    0.41920   1.00
O2       0.60527    0.24583    0.41920   1.00
O2       0.75417    0.35943    0.41920   1.00
O2       0.59506    0.42028    0.44514   1.00
O2       0.54645    0.32871    0.48443   1.00
O2       -0.31407   0.45920    0.48404   1.00
O2       0.57972    0.17477    0.44514   1.00
O2       0.54080    0.22673    0.48404   1.00
O2       0.67129    0.21774    0.48443   1.00
O2       0.82523    0.40494    0.44514   1.00
O2       -0.21774   0.45355    0.48443   1.00
O2       0.77327    0.31407    0.48404   1.00
C1       0.60647    0.41943    0.42691   1.00
C1       0.58057    0.18703    0.42691   1.00
C1       0.81297    0.39353    0.42691   1.00
C1       0.52270    0.26670    0.49006   1.00
C1       -0.25600   0.47730    0.49006   1.00
C1       0.73330    0.25600    0.49006   1.00
O1       0.33333    0.66667    0.29167   1.00
Zn1      0.33333    0.66667    0.26256   1.00
Zn1      0.28182    0.70954    0.30058   1.00
Zn1      0.42773    0.71818    0.30058   1.00
Zn1      0.29046    0.57227    0.30058   1.00
O2       0.27193    0.69277    0.25254   1.00
O2       0.42083    0.72807    0.25254   1.00
O2       0.30723    0.57917    0.25254   1.00
O2       0.24638    0.73828    0.27848   1.00
O2       0.33796    0.78688    0.31776   1.00
O2       0.20747    0.64740    0.31737   1.00
O2       0.49189    0.75362    0.27848   1.00
O2       0.43994    0.79253    0.31737   1.00
O2       0.44893    0.66204    0.31776   1.00
O2       0.26172    0.50811    0.27848   1.00
O2       0.21312    0.55107    0.31776   1.00
O2       0.35260    0.56006    0.31737   1.00
C1       0.24723    0.72687    0.26025   1.00
C1       0.47963    0.75277    0.26025   1.00
C1       0.27313    0.52037    0.26025   1.00
C1       0.39997    0.81063    0.32339   1.00
C1       0.18937    0.58933    0.32339   1.00
C1       0.41067    0.60003    0.32339   1.00
O1       0.33333    0.66667    0.54167   1.00
Zn1      0.33333    0.66667    0.57078   1.00
Zn1      0.37621    0.61515    0.53275   1.00
Zn1      0.38485    0.76106    0.53275   1.00
Zn1      0.23894    -0.37621   0.53275   1.00
O2       0.35943    0.60527    0.58080   1.00
O2       0.39473    0.75417    0.58080   1.00
O2       0.24583    0.64057    0.58080   1.00
O2       0.40494    0.57972    0.55486   1.00
O2       0.45355    0.67129    0.51557   1.00
O2       0.31407    0.54080    0.51596   1.00
O2       0.42028    0.82523    0.55486   1.00
O2       0.45920    0.77327    0.51596   1.00
O2       0.32871    -0.21774   0.51557   1.00
O2       0.17477    0.59506    0.55486   1.00
O2       0.21774    0.54645    0.51557   1.00
O2       0.22673    -0.31407   0.51596   1.00
C1       0.39353    0.58057    0.57309   1.00
C1       0.41943    0.81297    0.57309   1.00
C1       0.18703    0.60647    0.57309   1.00
C1       0.47730    0.73330    0.50994   1.00
C1       0.25600    0.52270    0.50994   1.00
C1       0.26670    -0.25600   0.50994   1.00
O1       0.33333    0.66667    0.04167   1.00
Zn1      0.33333    0.66667    0.07078   1.00
Zn1      0.38485    -0.37621   0.03275   1.00
Zn1      0.23894    0.61515    0.03275   1.00
Zn1      0.37621    0.76106    0.03275   1.00
O2       0.39473    0.64057    0.08080   1.00
O2       0.24583    0.60527    0.08080   1.00
O2       0.35943    0.75417    0.08080   1.00
O2       0.42028    0.59506    0.05486   1.00
O2       0.32871    0.54645    0.01557   1.00
O2       0.45920    -0.31407   0.01596   1.00
O2       0.17477    0.57972    0.05486   1.00
O2       0.22673    0.54080    0.01596   1.00
O2       0.21774    0.67129    0.01557   1.00
O2       0.40494    0.82523    0.05486   1.00
O2       0.45355    -0.21774   0.01557   1.00
O2       0.31407    0.77327    0.01596   1.00
C1       0.41943    0.60647    0.07309   1.00
C1       0.18703    0.58057    0.07309   1.00
C1       0.39353    0.81297    0.07309   1.00
C1       0.26670    0.52270    0.00994   1.00
C1       0.47730    -0.25600   0.00994   1.00
C1       0.25600    0.73330    0.00994   1.00
O1       0.33333    0.66667    0.79167   1.00
Zn1      0.33333    0.66667    0.76256   1.00
Zn1      0.29046    0.71818    0.80058   1.00
Zn1      0.28182    0.57227    0.80058   1.00
Zn1      0.42773    0.70954    0.80058   1.00
O2       0.30723    0.72807    0.75254   1.00
O2       0.27193    0.57917    0.75254   1.00
O2       0.42083    0.69277    0.75254   1.00
O2       0.26172    0.75362    0.77848   1.00
O2       0.21312    0.66204    0.81776   1.00
O2       0.35260    0.79253    0.81737   1.00
O2       0.24638    0.50811    0.77848   1.00
O2       0.20747    0.56006    0.81737   1.00
O2       0.33796    0.55107    0.81776   1.00
O2       0.49189    0.73828    0.77848   1.00
O2       0.44893    0.78688    0.81776   1.00
O2       0.43994    0.64740    0.81737   1.00
C1       0.27313    0.75277    0.76025   1.00
C1       0.24723    0.52037    0.76025   1.00
C1       0.47963    0.72687    0.76025   1.00
C1       0.18937    0.60003    0.82339   1.00
C1       0.41067    0.81063    0.82339   1.00
C1       0.39997    0.58933    0.82339   1.00
C4       -0.17494   0.62435    0.54059   1.00
C4       -0.14918   0.68116    0.55413   1.00
C3       -0.15472   0.57412    0.54175   1.00
C3       -0.10714   0.68787    0.57106   1.00
C3       -0.22269   0.61673    0.52518   1.00
C3       -0.16567   0.73369    0.55087   1.00
C2       -0.22951   0.50766    0.51385   1.00
C2       -0.09432   0.79766    0.58095   1.00
C3       -0.18135   0.51733    0.52887   1.00
C3       -0.08021   0.74445    0.58402   1.00
C3       -0.24889   0.55797    0.51244   1.00
C3       -0.13690   0.79065    0.56435   1.00
H1       -0.11937   0.57726    0.55187   1.00
H1       -0.09506   0.65157    0.57472   1.00
C5       -0.24280   0.66716    0.52271   1.00
C5       -0.21008   0.72837    0.53459   1.00
H1       -0.16490   0.48278    0.53054   1.00
H1       -0.05000   0.74638    0.59591   1.00
H1       -0.28329   0.55053    0.50140   1.00
H1       -0.14706   0.82925    0.56245   1.00
C6       -0.29871   0.65480    0.50781   1.00
C6       -0.22122   0.78761    0.53000   1.00
H2       -0.34009   0.60229    0.50930   1.00
H2       -0.17240   0.83492    0.53067   1.00
H2       -0.32405   0.68312    0.51189   1.00
H2       -0.23590   0.78727    0.51429   1.00
C6       -0.27289   0.67227    0.48536   1.00
C6       -0.27555   0.79007    0.54417   1.00
H2       -0.23899   0.65213    0.48204   1.00
H2       -0.26694   0.78049    0.55984   1.00
C6       -0.32797   0.64753    0.46819   1.00
C6       -0.28036   0.85668    0.54393   1.00
H2       -0.24087   0.72762    0.48422   1.00
H2       -0.32546   0.74723    0.54011   1.00
C6       -0.36879   0.56861    0.46663   1.00
C6       -0.21496   0.91842    0.55264   1.00
C6       -0.37817   0.67439    0.47146   1.00
C6       -0.29347   0.87409    0.52227   1.00
C6       -0.29125   0.67560    0.44759   1.00
C6       -0.34109   0.84540    0.55755   1.00
H2       -0.33469   0.54796    0.46465   1.00
H2       -0.20367   0.90733    0.56781   1.00
H2       -0.39926   0.54559    0.48017   1.00
H2       -0.17082   0.93188    0.54306   1.00
H2       -0.40371   0.55202    0.45375   1.00
H2       -0.22066   0.96340    0.55371   1.00
H2       -0.41327   0.66098    0.45868   1.00
H2       -0.30159   0.91771    0.52248   1.00
H2       -0.40873   0.65242    0.48507   1.00
H2       -0.25007   0.88708    0.51238   1.00
H2       -0.35062   0.72976    0.47303   1.00
H2       -0.33847   0.83091    0.51562   1.00
H2       -0.25562   0.65752    0.44445   1.00
H2       -0.33400   0.83362    0.57311   1.00
H2       -0.32766   0.65928    0.43508   1.00
H2       -0.34627   0.89079    0.55798   1.00
H2       -0.26259   0.73125    0.44760   1.00
H2       -0.38905   0.80324    0.55193   1.00
C4       0.37285    0.19603    0.53953   1.00
C4       0.31489    0.16479    0.55264   1.00
C3       0.43932    0.24381    0.54669   1.00
C3       0.32049    0.17357    0.57409   1.00
C3       0.36497    0.17955    0.51840   1.00
C3       0.24840    0.12291    0.54425   1.00
C2       0.49070    0.25671    0.51322   1.00
C2       0.19737    0.10436    0.57908   1.00
C3       0.49658    0.27303    0.53398   1.00
C3       0.26358    0.14462    0.58693   1.00
C3       0.42464    0.21014    0.50600   1.00
C3       0.19171    0.09466    0.55784   1.00
H1       0.44852    0.25968    0.56136   1.00
H1       0.36621    0.20078    0.58121   1.00
C5       0.29885    0.13399    0.51015   1.00
C5       0.23982    0.10986    0.52285   1.00
H1       0.54317    0.30694    0.54009   1.00
H1       0.27102    0.15310    0.60226   1.00
H1       0.42116    0.19933    0.49093   1.00
H1       0.14359    0.06499    0.55243   1.00
C6       0.29231    0.11139    0.48825   1.00
C6       0.16874    0.07155    0.51394   1.00
H2       0.33202    0.09902    0.48490   1.00
H2       0.13764    0.09067    0.52071   1.00
H2       0.24634    0.06259    0.48576   1.00
H2       0.16837    0.08399    0.49804   1.00
C6       0.29349    0.16481    0.47289   1.00
C6       0.13455    -0.00777   0.51620   1.00
H2       0.33387    0.21592    0.47712   1.00
H2       0.14338    -0.02026   0.53151   1.00
C6       0.30236    0.15421    0.44986   1.00
C6       0.05634    -0.05158   0.51171   1.00
H2       0.24596    0.16562    0.47474   1.00
H2       0.16137    -0.02484   0.50613   1.00
C6       0.37368    0.16325    0.44538   1.00
C6       0.01348    -0.03829   0.52749   1.00
C6       0.24660    0.08308    0.44235   1.00
C6       0.03881    -0.03797   0.49012   1.00
C6       0.29588    0.20897    0.43745   1.00
C6       0.03502    -0.12816   0.51309   1.00
H2       0.41421    0.21258    0.45080   1.00
H2       0.02550    -0.04639   0.54292   1.00
H2       0.38015    0.12368    0.45265   1.00
H2       0.02283    0.01369    0.52649   1.00
H2       0.38113    0.16047    0.42913   1.00
H2       -0.04099   -0.07241   0.52507   1.00
H2       0.25029    0.07806    0.42600   1.00
H2       -0.01492   -0.07221   0.48661   1.00
H2       0.25179    0.04268    0.44962   1.00
H2       0.04847    0.01410    0.48876   1.00
H2       0.19585    0.07484    0.44571   1.00
H2       0.06936    -0.04558   0.47875   1.00
H2       0.33467    0.26030    0.44202   1.00
H2       0.04569    -0.14067   0.52814   1.00
H2       0.30218    0.20395    0.42123   1.00
H2       -0.01942   -0.16091   0.51019   1.00
H2       0.24597    0.20435    0.43966   1.00
H2       0.06259    -0.14107   0.50201   1.00
C4       0.80423    0.17104    0.53727   1.00
C4       0.83309    0.14128    0.55015   1.00
C3       0.82627    0.24201    0.53769   1.00
C3       0.89065    0.18127    0.56276   1.00
C3       0.75118    0.12897    0.52338   1.00
C3       0.80399    0.06884    0.55060   1.00
C2       0.74825    0.23184    0.51055   1.00
C2       0.88943    0.08098    0.57693   1.00
C3       0.79946    0.27166    0.52468   1.00
C3       0.91784    0.15215    0.57583   1.00
C3       0.72550    0.16122    0.51032   1.00
C3       0.83297    0.04118    0.56420   1.00
H1       0.86216    0.27471    0.54759   1.00
H1       0.91540    0.23310    0.56278   1.00
C5       0.72489    0.05674    0.52286   1.00
C5       0.74779    0.02609    0.53762   1.00
H1       0.81773    0.32319    0.52567   1.00
H1       0.95924    0.18378    0.58460   1.00
H1       0.68809    0.13309    0.50014   1.00
H1       0.81339    -0.01011   0.56505   1.00
C6       0.67400    0.01398    0.50665   1.00
C6       0.71294    -0.05066   0.53980   1.00
H2       0.69051    0.04034    0.49214   1.00
H2       0.70594    -0.06377   0.55586   1.00
H2       0.67523    -0.03257   0.50362   1.00
H2       0.66054    -0.07544   0.53446   1.00
C6       0.59902    -0.00489   0.51185   1.00
C6       0.75146    -0.08261   0.52863   1.00
H2       0.59870    0.04005    0.51776   1.00
H2       0.80615    -0.05179   0.53162   1.00
C6       0.54485    -0.03559   0.49445   1.00
C6       0.72906    -0.15864   0.53350   1.00
H2       0.58165    -0.04122   0.52441   1.00
H2       0.74596    -0.07818   0.51233   1.00
C6       0.55989    0.01709    0.47733   1.00
C6       0.74545    -0.16753   0.55576   1.00
C6       0.54093    -0.10040   0.48524   1.00
C6       0.65202    -0.20669   0.52946   1.00
C6       0.47378    -0.05594   0.50343   1.00
C6       0.76942    -0.18110   0.51950   1.00
H2       0.56408    0.06393    0.48339   1.00
H2       0.79931    -0.13345   0.55920   1.00
H2       0.60730    0.03054    0.46949   1.00
H2       0.71551    -0.15661   0.56646   1.00
H2       0.51937    -0.00316   0.46599   1.00
H2       0.73404    -0.21966   0.55861   1.00
H2       0.49974    -0.12414   0.47415   1.00
H2       0.63794    -0.25998   0.53150   1.00
H2       0.58824    -0.08810   0.47748   1.00
H2       0.62113    -0.19611   0.53991   1.00
H2       0.53180    -0.13778   0.49704   1.00
H2       0.63884    -0.20040   0.51401   1.00
H2       0.47356    -0.01174   0.50996   1.00
H2       0.82427    -0.14916   0.52190   1.00
H2       0.43419    -0.07729   0.49180   1.00
H2       0.75584    -0.23386   0.52243   1.00
H2       0.45962    -0.09415   0.51535   1.00
H2       0.75890    -0.17729   0.50354   1.00
C4       0.63393    -0.16844   0.96300   1.00
C4       0.69228    -0.13812   0.95002   1.00
C3       0.59724    -0.23971   0.96719   1.00
C3       0.72223    -0.17558   0.94206   1.00
C3       0.61060    -0.12668   0.97225   1.00
C3       0.72256    -0.06769   0.94467   1.00
C2       0.51796    -0.22932   0.99003   1.00
C2       0.80822    -0.07774   0.92298   1.00
C3       0.54123    -0.26929   0.98036   1.00
C3       0.77821    -0.14652   0.92886   1.00
C3       0.55358    -0.15874   0.98566   1.00
C3       0.77930    -0.04013   0.93110   1.00
H1       0.60943    -0.27291   0.96067   1.00
H1       0.70492    -0.22520   0.94570   1.00
C5       0.64370    -0.05506   0.96794   1.00
C5       0.69644    -0.02665   0.95289   1.00
H1       0.51712    -0.32096   0.98282   1.00
H1       0.79727    -0.17633   0.92358   1.00
H1       0.53579    -0.13067   0.99263   1.00
H1       0.80191    0.00962    0.92683   1.00
C6       0.62313    -0.01033   0.97947   1.00
C6       0.72426    0.04572    0.94542   1.00
H2       0.61735    -0.02418   0.99547   1.00
H2       0.72924    0.04659    0.92897   1.00
H2       0.66417    0.04241    0.97995   1.00
H2       0.68755    0.06288    0.94737   1.00
C6       0.55749    -0.01289   0.97075   1.00
C6       0.79298    0.09808    0.95587   1.00
H2       0.51907    -0.06573   0.96744   1.00
H2       0.82681    0.07668    0.95661   1.00
C6       0.52287    0.01883    0.98395   1.00
C6       0.83409    0.17095    0.94630   1.00
H2       0.57070    0.01289    0.95606   1.00
H2       0.78171    0.10355    0.97165   1.00
C6       0.49265    -0.02196   1.00383   1.00
C6       0.86165    0.16881    0.92493   1.00
C6       0.57339    0.09438    0.98923   1.00
C6       0.79042    0.20596    0.94486   1.00
C6       0.46312    0.01616    0.97164   1.00
C6       0.89644    0.21555    0.96007   1.00
H2       0.45757    -0.07579   1.00063   1.00
H2       0.89181    0.14336    0.92538   1.00
H2       0.53246    -0.01872   1.01381   1.00
H2       0.82036    0.14170    0.91412   1.00
H2       0.46456    -0.00236   1.01223   1.00
H2       0.89413    0.22014    0.91899   1.00
H2       0.54759    0.11738    0.99718   1.00
H2       0.82089    0.25844    0.93953   1.00
H2       0.61407    0.09877    0.99907   1.00
H2       0.74834    0.17916    0.93424   1.00
H2       0.59649    0.12396    0.97551   1.00
H2       0.76920    0.20685    0.95964   1.00
H2       0.42550    -0.03630   0.96769   1.00
H2       0.92943    0.19341    0.96143   1.00
H2       0.43697    0.03738    0.98029   1.00
H2       0.92708    0.26695    0.95393   1.00
H2       0.48142    0.04526    0.95758   1.00
H2       0.88022    0.22016    0.97529   1.00
C4       0.19594    0.37276    0.96051   1.00
C4       0.16471    0.31477    0.94740   1.00
C3       0.24283    0.43942    0.95328   1.00
C3       0.17255    0.32046    0.92593   1.00
C3       0.18036    0.36471    0.98170   1.00
C3       0.12381    0.24816    0.95584   1.00
C2       0.25657    0.49062    0.98681   1.00
C2       0.10433    0.19724    0.92097   1.00
C3       0.27202    0.49668    0.96598   1.00
C3       0.14362    0.26354    0.91309   1.00
C3       0.21089    0.42438    0.99410   1.00
C3       0.09555    0.19149    0.94225   1.00
H1       0.25805    0.44877    0.93855   1.00
H1       0.19901    0.36623    0.91879   1.00
C5       0.13575    0.29843    0.99000   1.00
C5       0.11172    0.23947    0.97727   1.00
H1       0.30526    0.54341    0.95982   1.00
H1       0.15140    0.27104    0.89773   1.00
H1       0.20069    0.42078    1.00921   1.00
H1       0.06657    0.14329    0.94768   1.00
C6       0.11403    0.29162    1.01200   1.00
C6       0.07449    0.16835    0.98619   1.00
H2       0.10119    0.33089    1.01552   1.00
H2       0.09387    0.13773    0.97925   1.00
H2       0.06563    0.24531    1.01462   1.00
H2       0.08770    0.16815    1.00203   1.00
C6       0.16844    0.29351    1.02709   1.00
C6       -0.00499   0.13332    0.98425   1.00
H2       0.21917    0.33431    1.02271   1.00
H2       -0.01834   0.14193    0.96903   1.00
C6       0.15865    0.30218    1.05019   1.00
C6       -0.04784   0.05506    0.98876   1.00
H2       0.16983    0.24632    1.02512   1.00
H2       -0.02210   0.15973    0.99447   1.00
C6       0.16698    0.37313    1.05482   1.00
C6       -0.03456   0.01267    0.97280   1.00
C6       0.08813    0.24584    1.05792   1.00
C6       -0.03297   0.03783    1.01023   1.00
C6       0.21439    0.29648    1.06231   1.00
C6       -0.12469   0.03285    0.98772   1.00
H2       0.21586    0.41406    1.04925   1.00
H2       -0.04354   0.02450    0.95744   1.00
H2       0.12675    0.37902    1.04776   1.00
H2       0.01768    0.02266    0.97356   1.00
H2       0.16478    0.38049    1.07110   1.00
H2       -0.06807   -0.04189   0.97525   1.00
H2       0.08372    0.24943    1.07430   1.00
H2       -0.06656   -0.01600   1.01377   1.00
H2       0.04707    0.25045    1.05087   1.00
H2       0.01937    0.04813    1.01136   1.00
H2       0.08037    0.19532    1.05447   1.00
H2       -0.04055   0.06807    1.02172   1.00
H2       0.26534    0.33571    1.05758   1.00
H2       -0.13808   0.04327    0.97275   1.00
H2       0.20995    0.30267    1.07856   1.00
H2       -0.15680   -0.02166   0.99064   1.00
H2       0.21031    0.24685    1.05999   1.00
H2       -0.13758   0.06005    0.99893   1.00
C4       0.17102    0.80422    0.96273   1.00
C4       0.14126    0.83307    0.94986   1.00
C3       0.24201    0.82635    0.96234   1.00
C3       0.18125    0.89071    0.93727   1.00
C3       0.12894    0.75108    0.97659   1.00
C3       0.06881    0.80389    0.94938   1.00
C2       0.23183    0.74825    0.98945   1.00
C2       0.08096    0.88941    0.92307   1.00
C3       0.27166    0.79955    0.97535   1.00
C3       0.15214    0.91790    0.92420   1.00
C3       0.16119    0.72540    0.98966   1.00
C3       0.04115    0.83287    0.93577   1.00
H1       0.27473    0.86231    0.95245   1.00
H1       0.23308    0.91553    0.93727   1.00
C5       0.05669    0.72470    0.97708   1.00
C5       0.02605    0.74761    0.96233   1.00
H1       0.32322    0.81788    0.97438   1.00
H1       0.18377    0.95936    0.91545   1.00
H1       0.13304    0.68794    0.99982   1.00
H1       -0.01014   0.81324    0.93490   1.00
C6       0.01390    0.67371    0.99327   1.00
C6       -0.05069   0.71268    0.96011   1.00
H2       0.04018    0.69017    1.00779   1.00
H2       -0.06372   0.70574    0.94405   1.00
H2       -0.03271   0.67485    0.99629   1.00
H2       -0.07544   0.66025    0.96544   1.00
C6       -0.00485   0.59878    0.98805   1.00
C6       -0.08278   0.75107    0.97128   1.00
H2       0.04016    0.59855    0.98215   1.00
H2       -0.05200   0.80577    0.96832   1.00
C6       -0.03558   0.54452    1.00542   1.00
C6       -0.15881   0.72859    0.96638   1.00
H2       -0.04112   0.58142    0.97547   1.00
H2       -0.07841   0.74550    0.98759   1.00
C6       0.01704    0.55954    1.02256   1.00
C6       -0.16762   0.74506    0.94413   1.00
C6       -0.10047   0.54047    1.01461   1.00
C6       -0.20679   0.65152    0.97039   1.00
C6       -0.05579   0.47352    0.99641   1.00
C6       -0.18141   0.76882    0.98040   1.00
H2       0.06393    0.56383    1.01651   1.00
H2       -0.13358   0.79894    0.94072   1.00
H2       0.03039    0.60691    1.03041   1.00
H2       -0.15660   0.71521    0.93342   1.00
H2       -0.00322   0.51897    1.03389   1.00
H2       -0.21976   0.73359    0.94126   1.00
H2       -0.12422   0.49922    1.02568   1.00
H2       -0.26010   0.63738    0.96833   1.00
H2       -0.08827   0.58772    1.02238   1.00
H2       -0.19611   0.62071    0.95994   1.00
H2       -0.13781   0.53134    1.00279   1.00
H2       -0.20055   0.63829    0.98584   1.00
H2       -0.01152   0.47339    0.98990   1.00
H2       -0.14952   0.82369    0.97801   1.00
H2       -0.07715   0.43387    1.00803   1.00
H2       -0.23418   0.75519    0.97745   1.00
H2       -0.09395   0.45937    0.98448   1.00
H2       -0.17766   0.75824    0.99635   1.00
C4       0.17324    0.37618    0.45921   1.00
C4       0.14416    0.32042    0.44526   1.00
C3       0.23820    0.39958    0.46838   1.00
C3       0.18086    0.28890    0.43789   1.00
C3       0.13665    0.41038    0.46439   1.00
C3       0.07585    0.29461    0.43824   1.00
C2       0.23360    0.49105    0.48665   1.00
C2       0.08427    0.20551    0.41783   1.00
C3       0.26771    0.45546    0.48160   1.00
C3       0.15184    0.23298    0.42467   1.00
C3       0.16866    0.46731    0.47783   1.00
C3       0.04804    0.23734    0.42487   1.00
H1       0.26621    0.37648    0.46595   1.00
H1       0.23030    0.30582    0.44168   1.00
C5       0.06981    0.38735    0.45630   1.00
C5       0.03734    0.32606    0.44446   1.00
H1       0.31484    0.46998    0.48765   1.00
H1       0.18091    0.21237    0.41997   1.00
H1       0.14445    0.49322    0.48176   1.00
H1       -0.00051   0.21725    0.41965   1.00
C6       0.03480    0.42836    0.46018   1.00
C6       -0.03714   0.29380    0.43865   1.00
H2       0.07154    0.48233    0.45812   1.00
H2       -0.06175   0.23886    0.44092   1.00
H2       -0.00253   0.41978    0.44849   1.00
H2       -0.06518   0.30760    0.44918   1.00
C6       -0.00069   0.41393    0.48146   1.00
C6       -0.04823   0.31195    0.41656   1.00
H2       0.03330    0.41268    0.49301   1.00
H2       -0.01279   0.30765    0.40623   1.00
C6       -0.02519   0.46374    0.48897   1.00
C6       -0.12152   0.26995    0.40732   1.00
H2       -0.04470   0.36236    0.48114   1.00
H2       -0.03344   0.36585    0.41636   1.00
C6       0.03572    0.53633    0.49297   1.00
C6       -0.14230   0.19415    0.40403   1.00
C6       -0.07459   0.46827    0.47362   1.00
C6       -0.17551   0.27368    0.42084   1.00
C6       -0.06394   0.43631    0.50932   1.00
C6       -0.12198   0.30051    0.38628   1.00
H2       0.07215    0.53476    0.50350   1.00
H2       -0.10459   0.18980    0.39480   1.00
H2       0.06284    0.56041    0.47902   1.00
H2       -0.14710   0.16829    0.41837   1.00
H2       0.01848    0.56936    0.49952   1.00
H2       -0.19138   0.16642    0.39630   1.00
H2       -0.09515   0.49922    0.47964   1.00
H2       -0.22553   0.24838    0.41358   1.00
H2       -0.04854   0.49166    0.45946   1.00
H2       -0.18060   0.24862    0.43538   1.00
H2       -0.11724   0.41765    0.47021   1.00
H2       -0.16135   0.32657    0.42375   1.00
H2       -0.03102   0.43280    0.52078   1.00
H2       -0.08514   0.29845    0.37604   1.00
H2       -0.08172   0.46971    0.51526   1.00
H2       -0.17211   0.27254    0.37914   1.00
H2       -0.10842   0.38565    0.50739   1.00
H2       -0.10903   0.35369    0.38765   1.00
C4       0.63266    0.80487    0.46253   1.00
C4       0.68947    0.83593    0.44899   1.00
C3       0.63229    0.76792    0.48007   1.00
C3       0.75240    0.83837    0.45315   1.00
C3       0.57349    0.81037    0.45860   1.00
C3       0.68409    0.86603    0.43052   1.00
C2       0.51916    0.74490    0.49047   1.00
C2       0.80325    0.89574    0.42115   1.00
C3       0.57748    0.73910    0.49369   1.00
C3       0.80751    0.86703    0.43963   1.00
C3       0.51891    0.78061    0.47291   1.00
C3       0.74126    0.89436    0.41712   1.00
H1       0.67155    0.75998    0.48350   1.00
H1       0.76080    0.82003    0.46625   1.00
C5       0.56972    0.84449    0.44074   1.00
C5       0.62303    0.86767    0.42590   1.00
H1       0.58047    0.71331    0.50610   1.00
H1       0.85142    0.86695    0.44349   1.00
H1       0.47618    0.78386    0.47071   1.00
H1       0.73921    0.91582    0.40378   1.00
C6       0.51003    0.85624    0.43789   1.00
C6       0.61534    0.89308    0.40538   1.00
H2       0.49964    0.87341    0.45220   1.00
H2       0.63321    0.87180    0.39366   1.00
H2       0.52309    0.89965    0.42808   1.00
H2       0.56206    0.87186    0.40123   1.00
C6       0.44481    0.79233    0.42932   1.00
C6       0.65191    0.97280    0.40401   1.00
H2       0.43696    0.74655    0.43725   1.00
H2       0.70248    0.99502    0.41090   1.00
C6       0.37610    0.79313    0.42999   1.00
C6       0.66044    1.00519    0.38246   1.00
H2       0.45515    0.78543    0.41358   1.00
H2       0.62359    0.98962    0.41352   1.00
C6       0.35192    0.79181    0.45209   1.00
C6       0.70932    0.99289    0.36893   1.00
C6       0.38196    0.85608    0.41885   1.00
C6       0.59096    0.97733    0.37153   1.00
C6       0.32035    0.72817    0.41915   1.00
C6       0.69206    1.08346    0.38493   1.00
H2       0.34834    0.74853    0.46047   1.00
H2       0.75852    1.01101    0.37637   1.00
H2       0.38677    0.83815    0.46026   1.00
H2       0.68820    0.93898    0.36553   1.00
H2       0.30177    0.78759    0.45238   1.00
H2       0.71865    1.01962    0.35448   1.00
H2       0.33262    0.85363    0.41815   1.00
H2       0.59687    1.00374    0.35717   1.00
H2       0.41719    0.90311    0.42669   1.00
H2       0.56863    0.92319    0.36817   1.00
H2       0.40028    0.85901    0.40338   1.00
H2       0.55510    0.98407    0.38093   1.00
H2       0.31366    0.68211    0.42657   1.00
H2       0.74168    1.10585    0.39240   1.00
H2       0.27117    0.72617    0.41934   1.00
H2       0.69945    1.10851    0.37025   1.00
H2       0.33385    0.72684    0.40333   1.00
H2       0.65917    1.09549    0.39402   1.00
C4       0.19613    -0.17682   0.46044   1.00
C4       0.16746    -0.15009   0.44636   1.00
C3       0.17090    -0.19591   0.48058   1.00
C3       0.10727    -0.14728   0.45071   1.00
C3       0.25226    -0.18503   0.45440   1.00
C3       0.19946    -0.12507   0.42712   1.00
C2       0.25188    -0.23401   0.48859   1.00
C2       0.11131    -0.09297   0.41832   1.00
C3       0.19761    -0.22395   0.49422   1.00
C3       0.08014    -0.11932   0.43718   1.00
C3       0.27775    -0.21413   0.46872   1.00
C3       0.17044    -0.09665   0.41382   1.00
H1       0.13261    -0.18951   0.48617   1.00
H1       0.08048    -0.16608   0.46378   1.00
C5       0.28169    -0.16407   0.43460   1.00
C5       0.25853    -0.12916   0.42154   1.00
H1       0.17698    -0.23693   0.50851   1.00
H1       0.03676    -0.11854   0.44125   1.00
H1       0.31731    -0.22120   0.46494   1.00
H1       0.19201    -0.07792   0.40006   1.00
C6       0.33617    -0.17972   0.42768   1.00
C6       0.29606    -0.09598   0.40209   1.00
H2       0.32124    -0.23180   0.43199   1.00
H2       0.30078    -0.04584   0.40070   1.00
H2       0.33796    -0.18228   0.41124   1.00
H2       0.34918    -0.08295   0.40278   1.00
C6       0.40909    -0.12737   0.43574   1.00
C6       0.26225    -0.14087   0.38281   1.00
H2       0.40602    -0.11693   0.45178   1.00
H2       0.20700    -0.16243   0.38349   1.00
C6       0.46632    -0.14648   0.43340   1.00
C6       0.28718    -0.10610   0.36159   1.00
H2       0.42573    -0.07894   0.42798   1.00
H2       0.27017    -0.18462   0.38353   1.00
C6       0.45188    -0.20888   0.44667   1.00
C6       0.26791    -0.05013   0.35799   1.00
C6       0.47513    -0.16141   0.41101   1.00
C6       0.36524    -0.07461   0.35907   1.00
C6       0.53488    -0.08515   0.44066   1.00
C6       0.25158    -0.16114   0.34488   1.00
H2       0.44430    -0.20039   0.46253   1.00
H2       0.21321    -0.07049   0.35998   1.00
H2       0.40647    -0.25495   0.44158   1.00
H2       0.29457    -0.00763   0.36845   1.00
H2       0.49426    -0.21886   0.44603   1.00
H2       0.28125    -0.02952   0.34265   1.00
H2       0.51829    -0.16987   0.40934   1.00
H2       0.38137    -0.05485   0.34374   1.00
H2       0.42987    -0.20703   0.40556   1.00
H2       0.39289    -0.03234   0.36957   1.00
H2       0.48394    -0.11881   0.40128   1.00
H2       0.38037    -0.11265   0.36194   1.00
H2       0.53163    -0.07292   0.45649   1.00
H2       0.19621    -0.18455   0.34585   1.00
H2       0.57646    -0.09623   0.43944   1.00
H2       0.26705    -0.13919   0.32974   1.00
H2       0.54860    -0.03977   0.43158   1.00
H2       0.26434    -0.20148   0.34636   1.00
C4       0.36606    0.16842    0.03700   1.00
C4       0.30842    0.14210    0.05023   1.00
C3       0.38258    0.12526    0.02555   1.00
C3       0.25938    0.07126    0.05132   1.00
C3       0.40947    0.24052    0.03498   1.00
C3       0.29858    0.18763    0.06294   1.00
C2       0.48068    0.22158    0.00948   1.00
C2       0.19366    0.08842    0.07770   1.00
C3       0.43790    0.15090    0.01213   1.00
C3       0.20390    0.04507    0.06470   1.00
C3       0.46507    0.26456    0.02106   1.00
C3       0.24163    0.15887    0.07643   1.00
H1       0.35543    0.07358    0.02668   1.00
H1       0.26175    0.03609    0.04230   1.00
C5       0.39710    0.28651    0.04675   1.00
C5       0.34466    0.25976    0.06191   1.00
H1       0.44694    0.11708    0.00425   1.00
H1       0.17049    -0.00655   0.06481   1.00
H1       0.49679    0.31548    0.01910   1.00
H1       0.23319    0.18954    0.08581   1.00
C6       0.43895    0.36248    0.04288   1.00
C6       0.33784    0.30656    0.07694   1.00
H2       0.44387    0.37149    0.02657   1.00
H2       0.32903    0.28394    0.09201   1.00
H2       0.41182    0.38864    0.04741   1.00
H2       0.38588    0.35370    0.07907   1.00
C6       0.51023    0.39704    0.05363   1.00
C6       0.28146    0.32422    0.07093   1.00
H2       0.53377    0.36546    0.05158   1.00
H2       0.23571    0.27796    0.06590   1.00
C6       0.56358    0.47159    0.04717   1.00
C6       0.25939    0.35933    0.08735   1.00
H2       0.50151    0.39676    0.06994   1.00
H2       0.29952    0.35727    0.05760   1.00
C6       0.58717    0.47477    0.02491   1.00
C6       0.22296    0.31114    0.10552   1.00
C6       0.53503    0.52064    0.04980   1.00
C6       0.32102    0.42621    0.09526   1.00
C6       0.62741    0.49740    0.06095   1.00
C6       0.20811    0.37749    0.07756   1.00
H2       0.60660    0.43984    0.02247   1.00
H2       0.17981    0.26295    0.10041   1.00
H2       0.54556    0.46127    0.01427   1.00
H2       0.25744    0.29962    0.11389   1.00
H2       0.62774    0.52601    0.02100   1.00
H2       0.20361    0.33428    0.11619   1.00
H2       0.57416    0.57324    0.04665   1.00
H2       0.30447    0.45275    0.10560   1.00
H2       0.49281    0.50754    0.03940   1.00
H2       0.35654    0.41581    0.10352   1.00
H2       0.51673    0.51831    0.06525   1.00
H2       0.34844    0.46048    0.08271   1.00
H2       0.65004    0.46486    0.05951   1.00
H2       0.16315    0.33181    0.07190   1.00
H2       0.66644    0.54925    0.05693   1.00
H2       0.19080    0.40178    0.08850   1.00
H2       0.61429    0.49767    0.07687   1.00
H2       0.23131    0.41256    0.06486   1.00
C4       0.80420    0.63321    0.03727   1.00
C4       0.83541    0.69030    0.05070   1.00
C3       0.75878    0.62810    0.02152   1.00
C3       0.82911    0.74935    0.04802   1.00
C3       0.81829    0.57863    0.03946   1.00
C3       0.87470    0.68923    0.06753   1.00
C2       0.74367    0.51938    0.00945   1.00
C2       0.89571    0.80437    0.07843   1.00
C3       0.72964    0.57315    0.00796   1.00
C3       0.85800    0.80455    0.06149   1.00
C3       0.78788    0.52376    0.02526   1.00
C3       0.90297    0.74633    0.08097   1.00
H1       0.74462    0.66378    0.01944   1.00
H1       0.80386    0.75475    0.03606   1.00
C5       0.86135    0.57953    0.05555   1.00
C5       0.88524    0.63244    0.07054   1.00
H1       0.69750    0.57261    -0.00313   1.00
H1       0.85136    0.84552    0.05876   1.00
H1       0.79705    0.48424    0.02624   1.00
H1       0.93083    0.74724    0.09318   1.00
C6       0.88162    0.52519    0.05638   1.00
C6       0.92069    0.62869    0.08956   1.00
H2       0.89521    0.51723    0.04117   1.00
H2       0.90093    0.64309    0.10257   1.00
H2       0.92934    0.54278    0.06449   1.00
H2       0.90623    0.57643    0.09331   1.00
C6       0.82563    0.45675    0.06613   1.00
C6       1.00038    0.67242    0.08826   1.00
H2       0.77557    0.44378    0.06012   1.00
H2       1.01512    0.72222    0.08168   1.00
C6       0.83411    0.39260    0.06374   1.00
C6       1.04166    0.68470    0.10838   1.00
H2       0.82334    0.46590    0.08230   1.00
H2       1.01753    0.64777    0.07738   1.00
C6       0.82691    0.36939    0.04129   1.00
C6       1.02844    0.72920    0.12355   1.00
C6       0.90360    0.40581    0.07211   1.00
C6       1.02477    0.61663    0.11875   1.00
C6       0.77681    0.33293    0.07602   1.00
C6       1.11891    0.72356    0.10321   1.00
H2       0.77879    0.36071    0.03483   1.00
H2       1.03883    0.77721    0.11657   1.00
H2       0.86818    0.40735    0.03198   1.00
H2       0.97581    0.70308    0.12881   1.00
H2       0.82816    0.32200    0.03995   1.00
H2       1.06094    0.74140    0.13691   1.00
H2       0.90699    0.35941    0.07171   1.00
H2       1.05729    0.62559    0.13195   1.00
H2       0.94568    0.44421    0.06310   1.00
H2       0.97203    0.58935    0.12396   1.00
H2       0.91058    0.42360    0.08777   1.00
H2       1.03229    0.58373    0.10825   1.00
H2       0.72651    0.32103    0.07055   1.00
H2       1.13371    0.77247    0.09603   1.00
H2       0.78030    0.28671    0.07471   1.00
H2       1.14997    0.73376    0.11683   1.00
H2       0.78001    0.34571    0.09209   1.00
H2       1.13174    0.69406    0.09285   1.00
C4       -0.17682   0.19613    0.03957   1.00
C4       -0.15008   0.16747    0.05364   1.00
C3       -0.19599   0.17085    0.01943   1.00
C3       -0.14736   0.10723    0.04931   1.00
C3       -0.18495   0.25232    0.04559   1.00
C3       -0.12499   0.19953    0.07287   1.00
C2       -0.23401   0.25189    0.01141   1.00
C2       -0.09297   0.11132    0.08169   1.00
C3       -0.22404   0.19756    0.00579   1.00
C3       -0.11939   0.08011    0.06283   1.00
C3       -0.21406   0.27781    0.03128   1.00
C3       -0.09656   0.17050    0.08617   1.00
H1       -0.18966   0.13252    0.01385   1.00
H1       -0.16621   0.08041    0.03624   1.00
C5       -0.16391   0.28181    0.06538   1.00
C5       -0.12899   0.25865    0.07844   1.00
H1       -0.23707   0.17688    -0.00849   1.00
H1       -0.11868   0.03668    0.05877   1.00
H1       -0.22107   0.31742    0.03505   1.00
H1       -0.07778   0.19211    0.09992   1.00
C6       -0.17946   0.33635    0.07230   1.00
C6       -0.09573   0.29622    0.09788   1.00
H2       -0.23155   0.32146    0.06800   1.00
H2       -0.04560   0.30090    0.09925   1.00
H2       -0.18197   0.33820    0.08873   1.00
H2       -0.08265   0.34936    0.09718   1.00
C6       -0.12710   0.40924    0.06421   1.00
C6       -0.14056   0.26251    0.11718   1.00
H2       -0.11672   0.40610    0.04817   1.00
H2       -0.16217   0.20725    0.11651   1.00
C6       -0.14613   0.46652    0.06654   1.00
C6       -0.10572   0.28749    0.13839   1.00
H2       -0.07864   0.42586    0.07196   1.00
H2       -0.18429   0.27047    0.11646   1.00
C6       -0.20855   0.45210    0.05329   1.00
C6       -0.04978   0.26815    0.14198   1.00
C6       -0.16097   0.47543    0.08893   1.00
C6       -0.07416   0.36556    0.14089   1.00
C6       -0.08479   0.53503    0.05926   1.00
C6       -0.16071   0.25197    0.15511   1.00
H2       -0.20012   0.44445    0.03743   1.00
H2       -0.07020   0.21344    0.13999   1.00
H2       -0.25463   0.40672    0.05840   1.00
H2       -0.00731   0.29475    0.13150   1.00
H2       -0.21849   0.49451    0.05392   1.00
H2       -0.02912   0.28154    0.15731   1.00
H2       -0.16937   0.51863    0.09060   1.00
H2       -0.05434   0.38173    0.15621   1.00
H2       -0.20660   0.43021    0.09440   1.00
H2       -0.03192   0.39315    0.13037   1.00
H2       -0.11835   0.48423    0.09866   1.00
H2       -0.11217   0.38072    0.13801   1.00
H2       -0.07261   0.53172    0.04343   1.00
H2       -0.18417   0.19660    0.15415   1.00
H2       -0.09581   0.57664    0.06048   1.00
H2       -0.13871   0.26748    0.17024   1.00
H2       -0.03938   0.54874    0.06833   1.00
H2       -0.20102   0.26478    0.15363   1.00
C4       0.49602    0.95709    0.87415   1.00
C4       0.52195    1.01292    0.88806   1.00
C3       0.53710    0.93108    0.86626   1.00
C3       0.58840    1.04191    0.89668   1.00
C3       0.42651    0.92550    0.86769   1.00
C3       0.48051    1.04143    0.89376   1.00
C2       0.44277    0.84204    0.84680   1.00
C2       0.57569    1.12798    0.91542   1.00
C3       0.51132    0.87511    0.85308   1.00
C3       0.61469    1.09789    0.90987   1.00
C3       0.40213    0.86838    0.85434   1.00
C3       0.50933    1.09867    0.90714   1.00
H1       0.58748    0.95226    0.86964   1.00
H1       0.61994    1.02300    0.89386   1.00
C5       0.38345    0.95123    0.87445   1.00
C5       0.41215    1.01261    0.88625   1.00
H1       0.54351    0.85864    0.84800   1.00
H1       0.66310    1.11660    0.91550   1.00
H1       0.35288    0.84428    0.84953   1.00
H1       0.48162    1.12064    0.91144   1.00
C6       0.30825    0.91293    0.86924   1.00
C6       0.37154    1.04770    0.89067   1.00
H2       0.28841    0.85854    0.87150   1.00
H2       0.40422    1.10245    0.88849   1.00
H2       0.27839    0.92316    0.88012   1.00
H2       0.33227    1.03555    0.87932   1.00
C6       0.29273    0.92861    0.84735   1.00
C6       0.33781    1.03066    0.91222   1.00
H2       0.32937    0.92812    0.83665   1.00
H2       0.37460    1.03318    0.92342   1.00
C6       0.21949    0.88120    0.83866   1.00
C6       0.30762    1.07520    0.92021   1.00
H2       0.30259    0.98102    0.84726   1.00
H2       0.29705    0.97739    0.91211   1.00
C6       0.20532    0.80747    0.83522   1.00
C6       0.36423    1.15011    0.92394   1.00
C6       0.16376    0.87926    0.85274   1.00
C6       0.25399    1.07411    0.90539   1.00
C6       0.21390    0.90972    0.81777   1.00
C6       0.27173    1.04553    0.94081   1.00
H2       0.24445    0.80718    0.82560   1.00
H2       0.40351    1.15257    0.93409   1.00
H2       0.20430    0.78274    0.84949   1.00
H2       0.38886    1.17549    0.90983   1.00
H2       0.15610    0.77607    0.82787   1.00
H2       0.34331    1.17956    0.93081   1.00
H2       0.11333    0.85006    0.84586   1.00
H2       0.22977    1.10124    0.91175   1.00
H2       0.16236    0.85526    0.86720   1.00
H2       0.27756    1.09872    0.89108   1.00
H2       0.17334    0.93069    0.85575   1.00
H2       0.21428    1.02185    0.90217   1.00
H2       0.25179    0.91150    0.80716   1.00
H2       0.30763    1.04580    0.95192   1.00
H2       0.16365    0.87800    0.81101   1.00
H2       0.25016    1.07527    0.94709   1.00
H2       0.22205    0.96128    0.81926   1.00
H2       0.23024    0.99305    0.93910   1.00
C4       0.03399    0.52847    0.87079   1.00
C4       -0.02469   0.49923    0.88364   1.00
C3       0.08789    0.51375    0.87308   1.00
C3       -0.03700   0.44790    0.89824   1.00
C3       0.03991    0.57439    0.85499   1.00
C3       -0.07352   0.52147    0.88202   1.00
C2       0.15110    0.58496    0.84419   1.00
C2       -0.14161   0.44244    0.91032   1.00
C3       0.14454    0.54079    0.86015   1.00
C3       -0.09345   0.42054    0.91125   1.00
C3       0.09824    0.60053    0.84207   1.00
C3       -0.13013   0.49259    0.89564   1.00
H1       0.08834    0.48335    0.88436   1.00
H1       -0.00577   0.42798    0.89982   1.00
C5       -0.01132   0.59338    0.85248   1.00
C5       -0.06538   0.57092    0.86704   1.00
H1       0.18154    0.52797    0.86255   1.00
H1       -0.09928   0.38386    0.92151   1.00
H1       0.10403    0.63295    0.83058   1.00
H1       -0.16568   0.50745    0.89504   1.00
C6       -0.00810   0.63615    0.83441   1.00
C6       -0.11339   0.59929    0.86693   1.00
H2       0.00443    0.61692    0.82089   1.00
H2       -0.12096   0.61063    0.88246   1.00
H2       -0.05813   0.62843    0.83052   1.00
H2       -0.09010   0.64947    0.85996   1.00
C6       0.04236    0.71430    0.83751   1.00
C6       -0.18290   0.55139    0.85609   1.00
H2       0.08978    0.72189    0.84424   1.00
H2       -0.20193   0.49870    0.86089   1.00
C6       0.06136    0.76150    0.81842   1.00
C6       -0.24191   0.56772    0.85894   1.00
H2       0.02021    0.73262    0.84888   1.00
H2       -0.17270   0.55205    0.83987   1.00
C6       0.10301    0.74596    0.80280   1.00
C6       -0.26714   0.55719    0.88123   1.00
C6       -0.00288   0.75493    0.80793   1.00
C6       -0.21996   0.64147    0.85226   1.00
C6       0.10652    0.83669    0.82534   1.00
C6       -0.30310   0.51801    0.84551   1.00
H2       0.14818    0.74909    0.80982   1.00
H2       -0.28198   0.50590    0.88652   1.00
H2       0.07280    0.69515    0.79635   1.00
H2       -0.22779   0.59350    0.89138   1.00
H2       0.12004    0.78216    0.79023   1.00
H2       -0.31130   0.56408    0.88278   1.00
H2       0.01111    0.79151    0.79554   1.00
H2       -0.26281   0.65074    0.85293   1.00
H2       -0.03420   0.70412    0.80154   1.00
H2       -0.18006   0.67866    0.86213   1.00
H2       -0.03387   0.76422    0.81871   1.00
H2       -0.20062   0.65068    0.83675   1.00
H2       0.15305    0.84429    0.83268   1.00
H2       -0.32110   0.46508    0.84976   1.00
H2       0.12152    0.87169    0.81249   1.00
H2       -0.34588   0.52713    0.84709   1.00
H2       0.07938    0.85120    0.83610   1.00
H2       -0.28885   0.52398    0.82951   1.00
C4       0.47057    0.50384    0.87053   1.00
C4       0.49925    0.47395    0.88342   1.00
C3       0.49558    0.57541    0.87005   1.00
C3       0.55927    0.51394    0.89511   1.00
C3       0.41464    0.46130    0.85755   1.00
C3       0.46744    0.40137    0.88484   1.00
C2       0.41480    0.56470    0.84375   1.00
C2       0.55541    0.41360    0.91025   1.00
C3       0.46886    0.60506    0.85701   1.00
C3       0.58640    0.48482    0.90820   1.00
C3       0.38914    0.49355    0.84441   1.00
C3       0.49646    0.37374    0.89844   1.00
H1       0.53371    0.60862    0.87930   1.00
H1       0.58592    0.56572    0.89440   1.00
C5       0.38541    0.38864    0.85797   1.00
C5       0.40855    0.35843    0.87280   1.00
H1       0.48934    0.65703    0.85733   1.00
H1       0.62965    0.51647    0.91628   1.00
H1       0.34971    0.46506    0.83486   1.00
H1       0.47502    0.32238    0.89996   1.00
C6       0.33118    0.34492    0.84265   1.00
C6       0.37121    0.28201    0.87604   1.00
H2       0.34622    0.36877    0.82776   1.00
H2       0.36632    0.27148    0.89227   1.00
H2       0.32959    0.29674    0.84007   1.00
H2       0.31812    0.25846    0.87142   1.00
C6       0.25810    0.33023    0.84870   1.00
C6       0.40534    0.24560    0.86486   1.00
H2       0.26094    0.37716    0.85416   1.00
H2       0.46056    0.27484    0.86706   1.00
C6       0.20108    0.29881    0.83211   1.00
C6       0.38057    0.16970    0.87067   1.00
H2       0.24141    0.29591    0.86175   1.00
H2       0.39759    0.24785    0.84859   1.00
C6       0.21557    0.34927    0.81436   1.00
C6       0.39965    0.16328    0.89284   1.00
C6       0.19260    0.23125    0.82358   1.00
C6       0.30257    0.12381    0.86780   1.00
C6       0.13234    0.28301    0.84191   1.00
C6       0.41651    0.14247    0.85655   1.00
H2       0.22292    0.39794    0.81992   1.00
H2       0.45430    0.19596    0.89546   1.00
H2       0.26112    0.35940    0.80598   1.00
H2       0.37276    0.17765    0.90368   1.00
H2       0.17331    0.32882    0.80360   1.00
H2       0.38643    0.11096    0.89629   1.00
H2       0.14956    0.20730    0.81312   1.00
H2       0.28657    0.07031    0.87048   1.00
H2       0.23801    0.24022    0.81530   1.00
H2       0.27469    0.13784    0.87839   1.00
H2       0.18376    0.19532    0.83582   1.00
H2       0.28758    0.12848    0.85242   1.00
H2       0.13535    0.32928    0.84800   1.00
H2       0.47185    0.17275    0.85815   1.00
H2       0.09089    0.26134    0.83086   1.00
H2       0.40116    0.08963    0.86011   1.00
H2       0.11858    0.24650    0.85431   1.00
H2       0.40390    0.14439    0.84067   1.00
C4       0.29045    0.16033    0.29252   1.00
C4       0.34673    0.18604    0.27878   1.00
C3       0.25182    0.19350    0.29569   1.00
C3       0.36380    0.24245    0.26571   1.00
C3       0.27142    0.09923    0.30368   1.00
C3       0.38802    0.15470    0.27786   1.00
C2       0.17455    0.10659    0.31956   1.00
C2       0.46253    0.24019    0.25170   1.00
C3       0.19541    0.16738    0.30870   1.00
C3       0.42010    0.26900    0.25264   1.00
C3       0.21342    0.07410    0.31670   1.00
C3       0.44512    0.18353    0.26442   1.00
H1       0.26362    0.23826    0.28880   1.00
H1       0.33556    0.26593    0.26504   1.00
C5       0.31012    0.06512    0.30178   1.00
C5       0.37167    0.09598    0.29003   1.00
H1       0.16951    0.19358    0.31026   1.00
H1       0.42984    0.30994    0.24366   1.00
H1       0.19803    0.03056    0.32478   1.00
H1       0.47595    0.16296    0.26344   1.00
C6       0.28516    -0.00323   0.31198   1.00
C6       0.41985    0.06785    0.29051   1.00
H2       0.23038    -0.03474   0.30960   1.00
H2       0.47206    0.11006    0.29170   1.00
H2       0.30417    -0.03305   0.30440   1.00
H2       0.41472    0.04008    0.30445   1.00
C6       0.30414    0.00295    0.33505   1.00
C6       0.41076    0.02064    0.27198   1.00
H2       0.29425    0.04070    0.34221   1.00
H2       0.40592    0.04406    0.25804   1.00
C6       0.26846    -0.06362   0.34813   1.00
C6       0.46718    0.00104    0.26843   1.00
H2       0.35925    0.02418    0.33613   1.00
H2       0.36185    -0.02633   0.27375   1.00
C6       0.19071    -0.09125   0.35010   1.00
C6       0.53642    0.06403    0.26255   1.00
C6       0.28039    -0.12017   0.33927   1.00
C6       0.47719    -0.03351   0.28737   1.00
C6       0.29929    -0.04671   0.36982   1.00
C6       0.44467    -0.05043   0.25056   1.00
H2       0.18055    -0.05213   0.35601   1.00
H2       0.53085    0.09023    0.24941   1.00
H2       0.16504    -0.10811   0.33552   1.00
H2       0.55736    0.10057    0.27495   1.00
H2       0.16712    -0.13482   0.36037   1.00
H2       0.57408    0.04916    0.25874   1.00
H2       0.25952    -0.16453   0.34926   1.00
H2       0.51303    -0.05134   0.28426   1.00
H2       0.25561    -0.13731   0.32456   1.00
H2       0.49752    0.00210    0.30003   1.00
H2       0.33474    -0.10157   0.33733   1.00
H2       0.42888    -0.07721   0.29208   1.00
H2       0.29159    -0.00742   0.37687   1.00
H2       0.43757    -0.02824   0.23671   1.00
H2       0.27562    -0.09162   0.37960   1.00
H2       0.48275    -0.06535   0.24740   1.00
H2       0.35398    -0.02821   0.36949   1.00
H2       0.39667    -0.09670   0.25397   1.00
C4       0.87540    0.70831    0.29297   1.00
C4       0.84690    0.65293    0.27889   1.00
C3       0.92113    0.71362    0.30865   1.00
C3       0.86756    0.60298    0.27814   1.00
C3       0.85799    0.76079    0.29157   1.00
C3       0.79579    0.64652    0.26488   1.00
C2       0.93569    0.82199    0.32084   1.00
C2       0.78691    0.53905    0.25108   1.00
C3       0.95069    0.76883    0.32211   1.00
C3       0.83833    0.54755    0.26475   1.00
C3       0.88950    0.81635    0.30551   1.00
C3       0.76703    0.58911    0.25157   1.00
H1       0.93416    0.67721    0.31100   1.00
H1       0.90512    0.60537    0.28716   1.00
C5       0.81003    0.75679    0.27665   1.00
C5       0.77495    0.69679    0.26434   1.00
H1       0.98350    0.76979    0.33303   1.00
H1       0.85528    0.51312    0.26501   1.00
H1       0.87877    0.85488    0.30490   1.00
H1       0.73024    0.58254    0.24149   1.00
C6       0.79765    0.81612    0.27394   1.00
C6       0.71582    0.68554    0.25098   1.00
H2       0.84642    0.86355    0.27423   1.00
H2       0.67498    0.63278    0.25246   1.00
H2       0.77952    0.81726    0.25876   1.00
H2       0.69127    0.71311    0.25656   1.00
C6       0.74643    0.81668    0.28983   1.00
C6       0.73663    0.70544    0.22825   1.00
H2       0.75853    0.80561    0.30491   1.00
H2       0.76987    0.68601    0.22336   1.00
C6       0.74131    0.88296    0.29141   1.00
C6       0.67788    0.68210    0.21231   1.00
H2       0.69581    0.77403    0.28630   1.00
H2       0.76817    0.76092    0.22749   1.00
C6       0.80837    0.94406    0.29955   1.00
C6       0.63703    0.60337    0.21007   1.00
C6       0.72337    0.90238    0.27071   1.00
C6       0.62830    0.70809    0.21783   1.00
C6       0.68363    0.86983    0.30662   1.00
C6       0.70994    0.71245    0.19134   1.00
H2       0.82304    0.93158    0.31401   1.00
H2       0.67077    0.58330    0.20649   1.00
H2       0.85034    0.95881    0.28895   1.00
H2       0.60963    0.57882    0.22394   1.00
H2       0.80273    0.98868    0.30193   1.00
H2       0.59935    0.58788    0.19794   1.00
H2       0.71512    0.94571    0.27228   1.00
H2       0.59044    0.69575    0.20590   1.00
H2       0.76453    0.91669    0.25982   1.00
H2       0.60082    0.68458    0.23180   1.00
H2       0.67709    0.85971    0.26445   1.00
H2       0.65597    0.76327    0.21991   1.00
H2       0.69419    0.85658    0.32159   1.00
H2       0.74495    0.69507    0.18662   1.00
H2       0.67837    0.91493    0.30836   1.00
H2       0.67086    0.69717    0.17964   1.00
H2       0.63461    0.82805    0.30150   1.00
H2       0.73838    0.76808    0.19183   1.00
C4       0.83329    0.12480    0.29291   1.00
C4       0.80652    0.15342    0.27883   1.00
C3       0.79204    0.07665    0.30798   1.00
C3       0.73552    0.13069    0.27744   1.00
C3       0.90391    0.14456    0.29212   1.00
C3       0.85172    0.20680    0.26549   1.00
C2       0.88661    0.06434    0.32074   1.00
C2       0.75268    0.21356    0.25106   1.00
C3       0.81768    0.04702    0.32142   1.00
C3       0.70934    0.15998    0.26407   1.00
C3       0.92794    0.11290    0.30601   1.00
C3       0.82305    0.23553    0.25217   1.00
H1       0.74196    0.06182    0.30990   1.00
H1       0.70009    0.09153    0.28596   1.00
C5       0.94858    0.19493    0.27784   1.00
C5       0.92336    0.22987    0.26559   1.00
H1       0.78523    0.01241    0.33189   1.00
H1       0.65766    0.14147    0.26386   1.00
H1       0.97773    0.12528    0.30582   1.00
H1       0.85360    0.27388    0.24256   1.00
C6       1.02139    0.20998    0.27572   1.00
C6       0.97143    0.29116    0.25297   1.00
H2       1.02180    0.16206    0.27568   1.00
H2       0.95762    0.33061    0.25464   1.00
H2       1.04208    0.23023    0.26081   1.00
H2       1.02290    0.31647    0.25908   1.00
C6       1.07035    0.26023    0.29230   1.00
C6       0.97389    0.27336    0.23012   1.00
H2       1.04549    0.24577    0.30712   1.00
H2       0.92210    0.23943    0.22464   1.00
C6       1.14262    0.26765    0.29443   1.00
C6       1.00959    0.33413    0.21482   1.00
H2       1.07700    0.31059    0.28917   1.00
H2       0.99950    0.24338    0.22932   1.00
C6       1.13810    0.20072    0.30207   1.00
C6       0.96980    0.37308    0.21258   1.00
C6       1.18236    0.28901    0.27412   1.00
C6       1.08400    0.38484    0.22120   1.00
C6       1.18405    0.32406    0.31032   1.00
C6       1.01145    0.30506    0.19365   1.00
H2       1.10934    0.18365    0.31623   1.00
H2       0.91671    0.33846    0.20841   1.00
H2       1.11317    0.15979    0.29101   1.00
H2       0.97008    0.39844    0.22665   1.00
H2       1.18874    0.20778    0.30485   1.00
H2       0.99239    0.41226    0.20088   1.00
H2       1.23434    0.29878    0.27611   1.00
H2       1.10993    0.42428    0.20972   1.00
H2       1.15780    0.24893    0.26278   1.00
H2       1.08541    0.41031    0.23538   1.00
H2       1.18504    0.33527    0.26819   1.00
H2       1.11277    0.35845    0.22330   1.00
H2       1.15850    0.31110    0.32504   1.00
H2       0.95998    0.26938    0.18833   1.00
H2       1.23490    0.33084    0.31245   1.00
H2       1.03557    0.34562    0.18238   1.00
H2       1.19020    0.37300    0.30558   1.00
H2       1.04010    0.27809    0.19415   1.00
C4       0.83133    0.69939    0.79632   1.00
C4       0.80392    0.64105    0.78335   1.00
C3       0.79649    0.73600    0.80024   1.00
C3       0.73686    0.61102    0.77512   1.00
C3       0.89603    0.72281    0.80584   1.00
C3       0.84438    0.61086    0.77828   1.00
C2       0.88512    0.81536    0.82333   1.00
C2       0.74966    0.52511    0.75632   1.00
C3       0.82229    0.79202    0.81340   1.00
C3       0.71057    0.55504    0.76193   1.00
C3       0.92034    0.77982    0.81923   1.00
C3       0.81584    0.55412    0.76471   1.00
H1       0.75137    0.72376    0.79352   1.00
H1       0.70435    0.62827    0.77856   1.00
C5       0.93480    0.68979    0.80181   1.00
C5       0.91119    0.63706    0.78677   1.00
H1       0.79456    0.81606    0.81565   1.00
H1       0.66192    0.53592    0.75645   1.00
H1       0.96591    0.79767    0.82639   1.00
H1       0.84321    0.53156    0.76064   1.00
C6       0.99962    0.71044    0.81362   1.00
C6       0.95613    0.60932    0.77960   1.00
H2       0.99084    0.71621    0.82957   1.00
H2       0.95274    0.60435    0.76314   1.00
H2       1.01137    0.66945    0.81426   1.00
H2       1.00989    0.64609    0.78173   1.00
C6       1.06302    0.77613    0.80505   1.00
C6       0.93940    0.54063    0.79015   1.00
H2       1.04868    0.81450    0.80157   1.00
H2       0.88416    0.50675    0.79068   1.00
C6       1.12878    0.81083    0.81850   1.00
C6       0.97166    0.49960    0.78084   1.00
H2       1.07625    0.76295    0.79046   1.00
H2       0.95545    0.55192    0.80597   1.00
C6       1.11731    0.84101    0.83825   1.00
C6       0.94290    0.47202    0.75939   1.00
C6       1.15368    0.76038    0.82404   1.00
C6       1.05040    0.54336    0.77969   1.00
C6       1.18635    0.87062    0.80633   1.00
C6       0.95340    0.43727    0.79468   1.00
H2       1.09863    0.87603    0.83487   1.00
H2       0.88728    0.44179    0.75963   1.00
H2       1.08034    0.80117    0.84815   1.00
H2       0.95750    0.51330    0.74855   1.00
H2       1.16462    0.86914    0.84682   1.00
H2       0.96208    0.43959    0.75363   1.00
H2       1.20214    0.78624    0.83217   1.00
H2       1.07268    0.51294    0.77455   1.00
H2       1.11700    0.71968    0.83380   1.00
H2       1.06607    0.58542    0.76904   1.00
H2       1.16078    0.73731    0.81041   1.00
H2       1.07185    0.56459    0.79452   1.00
H2       1.17161    0.90818    0.80221   1.00
H2       0.89821    0.40422    0.79584   1.00
H2       1.23334    0.89682    0.81516   1.00
H2       0.97447    0.40668    0.78872   1.00
H2       1.19779    0.85235    0.79238   1.00
H2       0.97356    0.45351    0.80996   1.00
C4       0.29227    0.12411    0.79319   1.00
C4       0.34971    0.15087    0.77987   1.00
C3       0.23154    0.12522    0.78831   1.00
C3       0.34785    0.17400    0.75990   1.00
C3       0.29481    0.09501    0.81219   1.00
C3       0.41177    0.15495    0.78650   1.00
C2       0.17484    0.06699    0.81967   1.00
C2       0.46685    0.20810    0.75327   1.00
C3       0.17443    0.09727    0.80107   1.00
C3       0.40465    0.20207    0.74702   1.00
C3       0.23541    0.06675    0.82470   1.00
C3       0.46857    0.18422    0.77296   1.00
H1       0.22676    0.14700    0.77539   1.00
H1       0.30494    0.17069    0.75390   1.00
C5       0.35557    0.09500    0.81832   1.00
C5       0.41586    0.12984    0.80611   1.00
H1       0.13207    0.09944    0.79664   1.00
H1       0.40009    0.21807    0.73283   1.00
H1       0.23509    0.04520    0.83826   1.00
H1       0.51370    0.18842    0.77718   1.00
C6       0.35508    0.05765    0.83742   1.00
C6       0.48377    0.14108    0.81376   1.00
H2       0.30816    0.00846    0.83791   1.00
H2       0.52322    0.19317    0.81031   1.00
H2       0.39353    0.04233    0.83692   1.00
H2       0.48557    0.14081    0.83024   1.00
C6       0.36513    0.09991    0.85724   1.00
C6       0.50239    0.08772    0.80532   1.00
H2       0.33356    0.12385    0.85651   1.00
H2       0.49123    0.08033    0.78909   1.00
C6       0.35049    0.06138    0.87798   1.00
C6       0.57725    0.10292    0.80848   1.00
H2       0.41771    0.14213    0.85740   1.00
H2       0.46780    0.03853    0.81230   1.00
C6       0.27391    0.00741    0.88037   1.00
C6       0.62912    0.16647    0.79628   1.00
C6       0.39380    0.02631    0.88054   1.00
C6       0.59760    0.11334    0.83118   1.00
C6       0.36958    0.11402    0.89540   1.00
C6       0.58231    0.04093    0.80064   1.00
H2       0.24185    0.03038    0.87832   1.00
H2       0.61553    0.16118    0.78022   1.00
H2       0.25799    -0.03358   0.86934   1.00
H2       0.63130    0.21278    0.80186   1.00
H2       0.26341    -0.01579   0.89541   1.00
H2       0.68046    0.17386    0.79745   1.00
H2       0.38688    0.00378    0.89561   1.00
H2       0.64798    0.11904    0.83336   1.00
H2       0.37908    -0.01451   0.86949   1.00
H2       0.59942    0.15916    0.83711   1.00
H2       0.44788    0.06295    0.87850   1.00
H2       0.56106    0.06991    0.84018   1.00
H2       0.33983    0.13981    0.89442   1.00
H2       0.56910    0.03178    0.78457   1.00
H2       0.35980    0.08943    0.91023   1.00
H2       0.63389    0.04933    0.80240   1.00
H2       0.42350    0.15279    0.89478   1.00
H2       0.54780    -0.00535   0.80896   1.00
C4       0.87537    0.16703    0.79296   1.00
C4       0.84881    0.19763    0.77954   1.00
C3       0.86557    0.10054    0.78962   1.00
C3       0.81690    0.16703    0.76079   1.00
C3       0.91323    0.20353    0.81049   1.00
C3       0.85399    0.26131    0.78482   1.00
C2       0.93192    0.10643    0.81955   1.00
C2       0.79207    0.25778    0.75285   1.00
C3       0.89321    0.07120    0.80243   1.00
C3       0.78906    0.19591    0.74787   1.00
C3       0.94084    0.17199    0.82309   1.00
C3       0.82465    0.28884    0.77130   1.00
H1       0.83741    0.07067    0.77786   1.00
H1       0.81329    0.12295    0.75571   1.00
C5       0.92235    0.26947    0.81512   1.00
C5       0.88809    0.29596    0.80309   1.00
H1       0.88454    0.02317    0.79914   1.00
H1       0.76647    0.17117    0.73460   1.00
H1       0.96844    0.19653    0.83561   1.00
H1       0.82690    0.33378    0.77459   1.00
C6       0.96853    0.31051    0.83246   1.00
C6       0.88683    0.35949    0.80954   1.00
H2       1.01487    0.30716    0.83192   1.00
H2       0.83551    0.35124    0.80744   1.00
H2       0.98865    0.36488    0.83038   1.00
H2       0.89352    0.36754    0.82583   1.00
C6       0.93298    0.28890    0.85371   1.00
C6       0.94148    0.42556    0.79841   1.00
H2       0.90416    0.23329    0.85478   1.00
H2       0.94182    0.41489    0.78225   1.00
C6       0.97943    0.31678    0.87296   1.00
C6       0.93515    0.49107    0.80042   1.00
H2       0.89481    0.30489    0.85445   1.00
H2       0.99164    0.43748    0.80402   1.00
C6       1.02816    0.28745    0.87482   1.00
C6       0.86996    0.48208    0.78984   1.00
C6       1.02189    0.39570    0.87295   1.00
C6       0.93511    0.51089    0.82290   1.00
C6       0.93314    0.29415    0.89207   1.00
C6       0.99753    0.55115    0.78983   1.00
H2       0.99980    0.23176    0.87454   1.00
H2       0.86790    0.46698    0.77400   1.00
H2       1.06504    0.30487    0.86248   1.00
H2       0.82392    0.44335    0.79733   1.00
H2       1.05691    0.30339    0.88898   1.00
H2       0.86842    0.52948    0.79009   1.00
H2       1.05034    0.41477    0.88708   1.00
H2       0.93561    0.55921    0.82411   1.00
H2       1.05872    0.41421    0.86057   1.00
H2       0.88968    0.47236    0.83073   1.00
H2       0.98889    0.41765    0.87123   1.00
H2       0.97980    0.51614    0.83082   1.00
H2       0.90250    0.23864    0.89293   1.00
H2       0.99956    0.54004    0.77381   1.00
H2       0.96334    0.31206    0.90595   1.00
H2       0.99519    0.59809    0.79071   1.00
H2       0.89843    0.31446    0.89185   1.00
H2       1.04518    0.56094    0.79690   1.00
C4       0.03323    0.50368    0.37051   1.00
C4       -0.02400   0.47771    0.38389   1.00
C3       0.04102    0.46204    0.35577   1.00
C3       -0.08077   0.41041    0.38207   1.00
C3       0.08520    0.57382    0.37171   1.00
C3       -0.02544   0.51998    0.39978   1.00
C2       0.14724    0.55690    0.34277   1.00
C2       -0.13824   0.42399    0.41156   1.00
C3       0.09606    0.48779    0.34224   1.00
C3       -0.13604   0.38414    0.39552   1.00
C3       0.14023    0.59813    0.35758   1.00
C3       -0.08250   0.49117    0.41322   1.00
H1       0.00735    0.41128    0.35445   1.00
H1       -0.08440   0.37818    0.37078   1.00
C5       0.08162    0.61756    0.38680   1.00
C5       0.02888    0.58912    0.40185   1.00
H1       0.09859    0.45518    0.33192   1.00
H1       -0.17528   0.33510    0.39344   1.00
H1       0.17792    0.64780    0.35787   1.00
H1       -0.08514   0.51948    0.42478   1.00
C6       0.13298    0.69316    0.38651   1.00
C6       0.03026    0.63086    0.41997   1.00
H2       0.13992    0.71155    0.37093   1.00
H2       0.01747    0.59946    0.43357   1.00
H2       0.11301    0.72272    0.39372   1.00
H2       0.08172    0.67134    0.42341   1.00
C6       0.20261    0.71130    0.39668   1.00
C6       -0.01694   0.66262    0.41738   1.00
H2       0.21825    0.67513    0.39168   1.00
H2       -0.06602   0.62439    0.41107   1.00
C6       0.26421    0.78498    0.39333   1.00
C6       -0.03143   0.69373    0.43666   1.00
H2       0.19382    0.70279    0.41299   1.00
H2       0.00592    0.70244    0.40583   1.00
C6       0.28722    0.79759    0.37082   1.00
C6       -0.07377   0.63812    0.45263   1.00
C6       0.24714    0.84013    0.40026   1.00
C6       0.03544    0.74937    0.44657   1.00
C6       0.32541    0.79333    0.40617   1.00
C6       -0.07375   0.72740    0.43020   1.00
H2       0.29859    0.75880    0.36536   1.00
H2       -0.12085   0.59746    0.44602   1.00
H2       0.24800    0.79665    0.36104   1.00
H2       -0.04530   0.61514    0.45877   1.00
H2       0.33303    0.84726    0.36888   1.00
H2       -0.08763   0.65952    0.46537   1.00
H2       0.29186    0.89103    0.39921   1.00
H2       0.02472    0.77410    0.45911   1.00
H2       0.20744    0.83956    0.39077   1.00
H2       0.06505    0.72747    0.45264   1.00
H2       0.22942    0.83158    0.41594   1.00
H2       0.06688    0.78845    0.43553   1.00
H2       0.34004    0.75595    0.40173   1.00
H2       -0.12197   0.69003    0.42329   1.00
H2       0.36995    0.84397    0.40423   1.00
H2       -0.08558   0.74952    0.44321   1.00
H2       0.31278    0.78638    0.42229   1.00
H2       -0.04593   0.76813    0.41922   1.00
C4       0.47081    0.96658    0.37058   1.00
C4       0.50203    1.02369    0.38401   1.00
C3       0.42473    0.96105    0.35499   1.00
C3       0.49504    1.08239    0.38146   1.00
C3       0.48557    0.91240    0.37262   1.00
C3       0.54204    1.02301    0.40069   1.00
C2       0.41024    0.85272    0.34278   1.00
C2       0.56236    1.13779    0.41173   1.00
C3       0.39557    0.90609    0.34143   1.00
C3       0.52394    1.13760    0.39493   1.00
C3       0.45511    0.85751    0.35843   1.00
C3       0.57030    1.08010    0.41413   1.00
H1       0.41009    0.99642    0.35303   1.00
H1       0.46924    1.08751    0.36960   1.00
C5       0.52932    0.91372    0.38856   1.00
C5       0.55327    0.96660    0.40356   1.00
H1       0.36294    0.90524    0.33047   1.00
H1       0.51680    1.17830    0.39230   1.00
H1       0.46473    0.81827    0.35931   1.00
H1       0.59866    1.08128    0.42624   1.00
C6       0.55024    0.85984    0.38921   1.00
C6       0.58952    0.96321    0.42244   1.00
H2       0.56350    0.85206    0.37394   1.00
H2       0.56992    0.97735    0.43554   1.00
H2       0.59826    0.87781    0.39717   1.00
H2       0.57562    0.91107    0.42614   1.00
C6       0.49495    0.79120    0.39903   1.00
C6       0.66912    1.00751    0.42093   1.00
H2       0.44459    0.77780    0.39319   1.00
H2       0.68324    1.05721    0.41438   1.00
C6       0.50402    0.72744    0.39649   1.00
C6       0.71110    1.02013    0.44092   1.00
H2       0.49306    0.80028    0.41523   1.00
H2       0.68626    0.98315    0.40994   1.00
C6       0.49632    0.70428    0.37403   1.00
C6       0.69785    1.06427    0.45622   1.00
C6       0.57398    0.74127    0.40464   1.00
C6       0.69512    0.95223    0.45123   1.00
C6       0.44741    0.66751    0.40887   1.00
C6       0.78819    1.05955    0.43554   1.00
H2       0.44786    0.69517    0.36773   1.00
H2       0.70761    1.11215    0.44929   1.00
H2       0.53713    0.74245    0.36464   1.00
H2       0.64539    1.03777    0.46163   1.00
H2       0.49799    0.65713    0.37260   1.00
H2       0.73080    1.07674    0.46948   1.00
H2       0.57782    0.69512    0.40413   1.00
H2       0.72812    0.96146    0.46432   1.00
H2       0.61560    0.77989    0.39555   1.00
H2       0.64255    0.92457    0.45657   1.00
H2       0.58130    0.75904    0.42031   1.00
H2       0.70267    0.91956    0.44064   1.00
H2       0.39682    0.65517    0.40357   1.00
H2       0.80236    1.10837    0.42839   1.00
H2       0.45133    0.62155    0.40746   1.00
H2       0.81971    1.07000    0.44907   1.00
H2       0.45100    0.68025    0.42496   1.00
H2       0.80105    1.03033    0.42508   1.00
C4       0.49580    0.52920    0.37058   1.00
C4       0.52169    0.49798    0.38401   1.00
C3       0.53639    0.57541    0.35502   1.00
C3       0.58744    0.50510    0.38148   1.00
C3       0.42682    0.51432    0.37259   1.00
C3       0.48094    0.45784    0.40066   1.00
C2       0.44252    0.58978    0.34278   1.00
C2       0.57546    0.43764    0.41172   1.00
C3       0.51059    0.60457    0.34146   1.00
C3       0.61375    0.47619    0.39495   1.00
C3       0.40239    0.54479    0.35840   1.00
C3       0.50977    0.42958    0.41410   1.00
H1       0.58643    0.59013    0.35308   1.00
H1       0.61841    0.53100    0.36964   1.00
C5       0.38433    0.47044    0.38850   1.00
C5       0.41324    0.44647    0.40350   1.00
H1       0.54241    0.63729    0.33052   1.00
H1       0.66164    0.48343    0.39234   1.00
H1       0.35350    0.53508    0.35926   1.00
H1       0.48254    0.40112    0.42619   1.00
C6       0.30950    0.44940    0.38912   1.00
C6       0.37353    0.41008    0.42236   1.00
H2       0.28855    0.43620    0.37384   1.00
H2       0.40718    0.42964    0.43548   1.00
H2       0.27946    0.40132    0.39705   1.00
H2       0.33520    0.42388    0.42605   1.00
C6       0.29598    0.50456    0.39895   1.00
C6       0.33834    0.33050    0.42080   1.00
H2       0.33292    0.55498    0.39314   1.00
H2       0.37402    0.31649    0.41427   1.00
C6       0.22311    0.49538    0.39638   1.00
C6       0.30891    0.28838    0.44077   1.00
H2       0.30686    0.50637    0.41516   1.00
H2       0.29690    0.31336    0.40980   1.00
C6       0.20776    0.50318    0.37392   1.00
C6       0.36625    0.30164    0.45610   1.00
C6       0.16701    0.42534    0.40449   1.00
C6       0.25686    0.30420    0.45107   1.00
C6       0.21962    0.55186    0.40878   1.00
C6       0.27139    0.21133    0.43535   1.00
H2       0.24709    0.55170    0.36765   1.00
H2       0.40446    0.29200    0.44918   1.00
H2       0.20524    0.46245    0.36452   1.00
H2       0.39211    0.35407    0.46153   1.00
H2       0.15890    0.50142    0.37247   1.00
H2       0.34573    0.26860    0.46934   1.00
H2       0.11699    0.42140    0.40396   1.00
H2       0.23306    0.27111    0.46414   1.00
H2       0.16413    0.38380    0.39538   1.00
H2       0.28167    0.35674    0.45644   1.00
H2       0.17739    0.41795    0.42016   1.00
H2       0.21669    0.29665    0.44046   1.00
H2       0.25784    0.60251    0.40351   1.00
H2       0.30614    0.19728    0.42821   1.00
H2       0.16971    0.54787    0.40735   1.00
H2       0.25027    0.17972    0.44886   1.00
H2       0.22869    0.54820    0.42487   1.00
H2       0.22935    0.19847    0.42487   1.00
C4       0.16177    0.29964    0.20402   1.00
C4       0.19139    0.35830    0.21688   1.00
C3       0.09169    0.24843    0.20530   1.00
C3       0.15167    0.37346    0.23040   1.00
C3       0.20308    0.29099    0.18925   1.00
C3       0.26340    0.40415    0.21639   1.00
C2       0.10104    0.18271    0.17736   1.00
C2       0.25163    0.47507    0.24362   1.00
C3       0.06205    0.19188    0.19233   1.00
C3       0.18078    0.42984    0.24345   1.00
C3       0.17085    0.23288    0.17626   1.00
C3       0.29109    0.46077    0.23000   1.00
H1       0.05969    0.24993    0.21584   1.00
H1       0.10001    0.34449    0.23113   1.00
C5       0.27459    0.33936    0.18782   1.00
C5       0.30568    0.39314    0.20249   1.00
H1       0.01115    0.15689    0.19397   1.00
H1       0.14937    0.43780    0.25290   1.00
H1       0.19843    0.22521    0.16548   1.00
H1       0.34211    0.49425    0.23019   1.00
C6       0.31609    0.33351    0.17074   1.00
C6       0.38245    0.43782    0.20363   1.00
H2       0.28727    0.32251    0.15666   1.00
H2       0.39816    0.44451    0.21948   1.00
H2       0.36084    0.38237    0.16730   1.00
H2       0.40830    0.41214    0.19756   1.00
C6       0.33901    0.27984    0.17504   1.00
C6       0.40982    0.50800    0.19256   1.00
H2       0.29626    0.23353    0.18135   1.00
H2       0.37760    0.52970    0.19635   1.00
C6       0.36876    0.25844    0.15686   1.00
C6       0.48571    0.56408    0.19651   1.00
H2       0.37727    0.30019    0.18708   1.00
H2       0.40313    0.49801    0.17627   1.00
C6       0.31396    0.21904    0.14039   1.00
C6       0.49715    0.58925    0.21881   1.00
C6       0.43052    0.32096    0.14703   1.00
C6       0.53562    0.53823    0.19129   1.00
C6       0.39354    0.21012    0.16495   1.00
C6       0.50328    0.62631    0.18270   1.00
H2       0.26916    0.17518    0.14692   1.00
H2       0.46188    0.60682    0.22307   1.00
H2       0.29725    0.25140    0.13315   1.00
H2       0.48976    0.54897    0.22930   1.00
H2       0.33384    0.20026    0.12849   1.00
H2       0.54892    0.63155    0.22106   1.00
H2       0.45386    0.30509    0.13535   1.00
H2       0.58852    0.57912    0.19270   1.00
H2       0.41494    0.35439    0.13986   1.00
H2       0.52856    0.49737    0.20151   1.00
H2       0.46927    0.35041    0.15838   1.00
H2       0.52765    0.51887    0.17579   1.00
H2       0.35159    0.16466    0.17188   1.00
H2       0.46988    0.64703    0.18593   1.00
H2       0.41439    0.19337    0.15276   1.00
H2       0.55578    0.66714    0.18501   1.00
H2       0.43336    0.23552    0.17636   1.00
H2       0.49751    0.61208    0.16671   1.00
C4       0.70765    0.87594    0.20679   1.00
C4       0.65231    0.84786    0.22088   1.00
C3       0.70803    0.91289    0.18925   1.00
C3       0.59698    0.86080    0.21960   1.00
C3       0.76520    0.86714    0.21010   1.00
C3       0.65148    0.80516    0.23699   1.00
C2       0.82101    0.93563    0.17879   1.00
C2       0.53870    0.78840    0.24879   1.00
C3       0.76305    0.94216    0.17571   1.00
C3       0.54169    0.83177    0.23305   1.00
C3       0.82036    0.89808    0.19601   1.00
C3       0.59404    0.77629    0.25030   1.00
H1       0.66804    0.91935    0.18554   1.00
H1       0.59510    0.89236    0.20898   1.00
C5       0.76649    0.82801    0.22702   1.00
C5       0.70713    0.79259    0.23957   1.00
H1       0.76031    0.96844    0.16339   1.00
H1       0.50324    0.84290    0.23127   1.00
H1       0.86235    0.89334    0.19793   1.00
H1       0.59138    0.74530    0.26185   1.00
C6       0.83061    0.82523    0.23155   1.00
C6       0.70220    0.74162    0.25531   1.00
H2       0.87467    0.87623    0.23000   1.00
H2       0.65157    0.69658    0.25461   1.00
H2       0.83364    0.81439    0.24745   1.00
H2       0.73451    0.72038    0.25151   1.00
C6       0.83797    0.77199    0.21819   1.00
C6       0.72001    0.77200    0.27729   1.00
H2       0.82520    0.77602    0.20245   1.00
H2       0.69525    0.80205    0.28017   1.00
C6       0.90864    0.77517    0.21827   1.00
C6       0.70220    0.72082    0.29531   1.00
H2       0.79910    0.72112    0.22313   1.00
H2       0.77468    0.80853    0.27776   1.00
C6       0.96510    0.84184    0.20840   1.00
C6       0.62405    0.67385    0.29775   1.00
C6       0.93081    0.76895    0.24002   1.00
C6       0.73593    0.67629    0.29270   1.00
C6       0.90233    0.71447    0.20559   1.00
C6       0.72971    0.76227    0.31525   1.00
H2       0.95050    0.84830    0.19313   1.00
H2       0.59858    0.70378    0.29930   1.00
H2       0.97519    0.88650    0.21726   1.00
H2       0.60189    0.64014    0.28476   1.00
H2       1.01298    0.84147    0.20725   1.00
H2       0.61202    0.64167    0.31118   1.00
H2       0.97763    0.76631    0.23978   1.00
H2       0.72725    0.64429    0.30601   1.00
H2       0.94052    0.81293    0.24922   1.00
H2       0.71488    0.64261    0.27962   1.00
H2       0.89130    0.72313    0.24747   1.00
H2       0.79084    0.70813    0.29052   1.00
H2       0.88744    0.71684    0.18999   1.00
H2       0.70689    0.79415    0.31793   1.00
H2       0.95066    0.71475    0.20508   1.00
H2       0.71809    0.72867    0.32833   1.00
H2       0.86413    0.66579    0.21205   1.00
H2       0.78495    0.79548    0.31462   1.00
C4       0.12479    0.83328    0.20709   1.00
C4       0.15342    0.80652    0.22117   1.00
C3       0.07666    0.79204    0.19202   1.00
C3       0.13070    0.73552    0.22255   1.00
C3       0.14455    0.90390    0.20788   1.00
C3       0.20679    0.85172    0.23451   1.00
C2       0.06434    0.88661    0.17926   1.00
C2       0.21356    0.75268    0.24894   1.00
C3       0.04703    0.81769    0.17857   1.00
C3       0.15999    0.70934    0.23593   1.00
C3       0.11289    0.92793    0.19399   1.00
C3       0.23552    0.82304    0.24783   1.00
H1       0.06183    0.74196    0.19010   1.00
H1       0.09154    0.70009    0.21404   1.00
C5       0.19491    0.94857    0.22216   1.00
C5       0.22986    0.92335    0.23441   1.00
H1       0.01243    0.78524    0.16810   1.00
H1       0.14148    0.65766    0.23614   1.00
H1       0.12526    0.97772    0.19418   1.00
H1       0.27387    0.85360    0.25745   1.00
C6       0.20995    1.02138    0.22429   1.00
C6       0.29114    0.97143    0.24704   1.00
H2       0.16203    1.02178    0.22432   1.00
H2       0.33060    0.95762    0.24537   1.00
H2       0.23020    1.04207    0.23920   1.00
H2       0.31645    1.02290    0.24093   1.00
C6       0.26021    1.07035    0.20771   1.00
C6       0.27333    0.97387    0.26989   1.00
H2       0.24576    1.04550    0.19288   1.00
H2       0.23940    0.92208    0.27536   1.00
C6       0.26762    1.14261    0.20558   1.00
C6       0.33408    1.00957    0.28519   1.00
H2       0.31056    1.07700    0.21084   1.00
H2       0.24334    0.99947    0.27069   1.00
C6       0.20068    1.13809    0.19794   1.00
C6       0.37305    0.96979    0.28742   1.00
C6       0.28897    1.18235    0.22589   1.00
C6       0.38480    1.08399    0.27881   1.00
C6       0.32403    1.18406    0.18969   1.00
C6       0.30501    1.01142    0.30636   1.00
H2       0.18363    1.10934    0.18378   1.00
H2       0.33843    0.91670    0.29160   1.00
H2       0.15976    1.11315    0.20899   1.00
H2       0.39842    0.97008    0.27336   1.00
H2       0.20774    1.18873    0.19516   1.00
H2       0.41222    0.99237    0.29913   1.00
H2       0.29873    1.23433    0.22390   1.00
H2       0.42423    1.10992    0.29030   1.00
H2       0.24889    1.15778    0.23724   1.00
H2       0.41027    1.08540    0.26464   1.00
H2       0.33523    1.18503    0.23182   1.00
H2       0.35840    1.11275    0.27671   1.00
H2       0.31108    1.15851    0.17498   1.00
H2       0.26933    0.95995    0.31168   1.00
H2       0.33081    1.23490    0.18757   1.00
H2       0.34556    1.03554    0.31763   1.00
H2       0.37298    1.19021    0.19444   1.00
H2       0.27803    1.04006    0.30586   1.00
C4       0.96688    0.49666    0.62953   1.00
C4       1.02541    0.52666    0.61662   1.00
C3       0.92262    0.42478    0.63087   1.00
C3       1.04778    0.48692    0.60581   1.00
C3       0.95117    0.53939    0.64164   1.00
C3       1.06370    0.59911    0.61428   1.00
C2       0.85040    0.43577    0.65637   1.00
C2       1.14179    0.58704    0.58974   1.00
C3       0.86633    0.39513    0.64394   1.00
C3       1.10397    0.51603    0.59270   1.00
C3       0.89359    0.50716    0.65484   1.00
C3       1.12038    0.62672    0.60069   1.00
H1       0.92923    0.39129    0.62225   1.00
H1       1.02450    0.43537    0.60722   1.00
C5       0.99219    0.61219    0.64031   1.00
C5       1.04537    0.64197    0.62542   1.00
H1       0.83655    0.34294    0.64427   1.00
H1       1.11734    0.48455    0.58528   1.00
H1       0.88106    0.53581    0.66379   1.00
H1       1.14857    0.67797    0.59851   1.00
C6       0.97937    0.65656    0.65475   1.00
C6       1.08176    0.71783    0.62116   1.00
H2       0.97144    0.63509    0.66997   1.00
H2       1.08708    0.72597    0.60482   1.00
H2       1.02475    0.70610    0.65688   1.00
H2       1.05045    0.74005    0.62513   1.00
C6       0.91899    0.66722    0.64797   1.00
C6       1.15216    0.75829    0.63228   1.00
H2       0.87611    0.61859    0.64297   1.00
H2       1.18010    0.73070    0.63082   1.00
C6       0.89129    0.69906    0.66378   1.00
C6       1.20092    0.83383    0.62558   1.00
H2       0.93544    0.69958    0.63448   1.00
H2       1.14200    0.75802    0.64849   1.00
C6       0.85683    0.65080    0.68208   1.00
C6       1.22674    0.83802    0.60354   1.00
C6       0.94854    0.76896    0.67160   1.00
C6       1.16593    0.87745    0.62738   1.00
C6       0.83645    0.71051    0.65327   1.00
C6       1.26420    0.86543    0.63974   1.00
H2       0.81687    0.60060    0.67704   1.00
H2       1.25074    0.80683    0.60168   1.00
H2       0.89352    0.64384    0.69092   1.00
H2       1.18525    0.82047    0.59262   1.00
H2       0.83356    0.67128    0.69229   1.00
H2       1.26429    0.89036    0.59950   1.00
H2       0.92788    0.79293    0.68148   1.00
H2       1.20179    0.93097    0.62407   1.00
H2       0.98620    0.76316    0.68034   1.00
H2       1.12376    0.86023    0.61669   1.00
H2       0.97460    0.80346    0.65898   1.00
H2       1.14601    0.87422    0.64265   1.00
H2       0.79439    0.66247    0.64764   1.00
H2       1.29125    0.83687    0.63887   1.00
H2       0.81519    0.73232    0.66376   1.00
H2       1.30008    0.91817    0.63556   1.00
H2       0.85804    0.74534    0.64044   1.00
H2       1.24940    0.86521    0.65550   1.00
C4       0.52940    0.03330    0.62946   1.00
C4       0.50070    -0.02528   0.61657   1.00
C3       0.50465    0.08008    0.62986   1.00
C3       0.44090    -0.04508   0.60480   1.00
C3       0.58507    0.04646    0.64253   1.00
C3       0.53227    -0.06628   0.61525   1.00
C2       0.58519    0.14994    0.65624   1.00
C2       0.44452    -0.14180   0.58975   1.00
C3       0.53138    0.13646    0.64290   1.00
C3       0.41377    -0.10133   0.59171   1.00
C3       0.61059    0.10423    0.65566   1.00
C3       0.50326    -0.12294   0.60165   1.00
H1       0.46672    0.07532    0.62055   1.00
H1       0.41442    -0.01976   0.60544   1.00
C5       0.61403    0.00280    0.64220   1.00
C5       0.59092    -0.05057   0.62738   1.00
H1       0.51110    0.16812    0.64251   1.00
H1       0.37068    -0.11277   0.58357   1.00
H1       0.64983    0.11501    0.66527   1.00
H1       0.52453    -0.15302   0.60018   1.00
C6       0.66797    0.01308    0.65760   1.00
C6       0.62805    -0.08991   0.62423   1.00
H2       0.65279    0.02198    0.67245   1.00
H2       0.63313    -0.09560   0.60801   1.00
H2       0.66930    -0.03363   0.66022   1.00
H2       0.68107    -0.06055   0.62892   1.00
C6       0.74123    0.07126    0.65163   1.00
C6       0.59351    -0.16045   0.63541   1.00
H2       0.73868    0.11547    0.64612   1.00
H2       0.53832    -0.18624   0.63314   1.00
C6       0.79800    0.09668    0.66829   1.00
C6       0.61806    -0.21182   0.62969   1.00
H2       0.75799    0.05352    0.63862   1.00
H2       0.60104    -0.15046   0.65169   1.00
C6       0.78346    0.13280    0.68598   1.00
C6       0.59924    -0.23729   0.60751   1.00
C6       0.80606    0.03741    0.67689   1.00
C6       0.69599    -0.17999   0.63267   1.00
C6       0.86697    0.14941    0.65857   1.00
C6       0.58171    -0.27496   0.64381   1.00
H2       0.77639    0.17424    0.68038   1.00
H2       0.54465    -0.25906   0.60482   1.00
H2       0.73772    0.09749    0.69431   1.00
H2       0.62641    -0.19606   0.59668   1.00
H2       0.82556    0.15445    0.69680   1.00
H2       0.61229    -0.27655   0.60411   1.00
H2       0.84893    0.05635    0.68741   1.00
H2       0.71181    -0.21766   0.63005   1.00
H2       0.76047    0.00110    0.68512   1.00
H2       0.72415    -0.13812   0.62209   1.00
H2       0.81493    0.01021    0.66469   1.00
H2       0.71081    -0.16035   0.64806   1.00
H2       0.86426    0.19279    0.65243   1.00
H2       0.52641    -0.29983   0.64213   1.00
H2       0.90825    0.16905    0.66967   1.00
H2       0.59690    -0.31262   0.64030   1.00
H2       0.88077    0.12654    0.64621   1.00
H2       0.59413    -0.26046   0.65969   1.00
C4       0.50387    0.47059    0.62947   1.00
C4       0.47399    0.49928    0.61658   1.00
C3       0.57541    0.49544    0.62990   1.00
C3       0.51398    0.55917    0.60483   1.00
C3       0.46135    0.41482    0.64250   1.00
C3       0.40141    0.46761    0.61521   1.00
C2       0.56472    0.41480    0.65624   1.00
C2       0.41364    0.55545    0.58975   1.00
C3       0.60507    0.46872    0.64293   1.00
C3       0.48486    0.58630    0.59174   1.00
C3       0.49360    0.38930    0.65563   1.00
C3       0.37377    0.49663    0.60162   1.00
H1       0.60860    0.53345    0.62061   1.00
H1       0.56577    0.58572    0.60551   1.00
C5       0.38871    0.38575    0.64213   1.00
C5       0.35847    0.40887    0.62731   1.00
H1       0.65702    0.48907    0.64257   1.00
H1       0.51652    0.62945    0.58363   1.00
H1       0.46512    0.34999    0.66522   1.00
H1       0.32241    0.47529    0.60013   1.00
C6       0.34503    0.33170    0.65750   1.00
C6       0.28202    0.37166    0.62412   1.00
H2       0.36902    0.34682    0.67237   1.00
H2       0.27135    0.36665    0.60790   1.00
H2       0.29693    0.33027    0.66011   1.00
H2       0.25840    0.31861    0.62879   1.00
C6       0.33010    0.25851    0.65150   1.00
C6       0.24586    0.40604    0.63530   1.00
H2       0.37693    0.26117    0.64601   1.00
H2       0.27519    0.46124    0.63306   1.00
C6       0.29872    0.20163    0.66814   1.00
C6       0.16994    0.38140    0.62955   1.00
H2       0.29567    0.24177    0.63847   1.00
H2       0.24823    0.39842    0.65158   1.00
C6       0.34931    0.21616    0.68585   1.00
C6       0.16339    0.40032    0.60737   1.00
C6       0.23130    0.19341    0.67670   1.00
C6       0.12393    0.30344    0.63249   1.00
C6       0.28266    0.13276    0.65838   1.00
C6       0.14298    0.41759    0.64367   1.00
H2       0.39788    0.22334    0.68026   1.00
H2       0.19615    0.45493    0.60471   1.00
H2       0.35962    0.26182    0.69420   1.00
H2       0.17757    0.37326    0.59654   1.00
H2       0.32886    0.17400    0.69665   1.00
H2       0.11107    0.38720    0.60395   1.00
H2       0.20736    0.15047    0.68720   1.00
H2       0.07043    0.28755    0.62984   1.00
H2       0.24046    0.23893    0.68496   1.00
H2       0.13777    0.27540    0.62190   1.00
H2       0.19529    0.18455    0.66449   1.00
H2       0.12869    0.28855    0.64787   1.00
H2       0.32882    0.13559    0.65226   1.00
H2       0.17336    0.47290    0.64202   1.00
H2       0.26100    0.09141    0.66946   1.00
H2       0.09014    0.40234    0.64014   1.00
H2       0.24606    0.11898    0.64601   1.00
H2       0.14500    0.40510    0.65955   1.00
C4       0.50656    0.04285    0.12588   1.00
C4       0.47747    -0.01291   0.11193   1.00
C3       0.57157    0.06632    0.13502   1.00
C3       0.51421    -0.04437   0.10453   1.00
C3       0.46992    0.07699    0.13108   1.00
C3       0.40913    -0.03879   0.10493   1.00
C2       0.56692    0.15773    0.15332   1.00
C2       0.41758    -0.12782   0.08450   1.00
C3       0.60108    0.12220    0.14825   1.00
C3       0.48518    -0.10029   0.09132   1.00
C3       0.50194    0.13392    0.14452   1.00
C3       0.38132    -0.09605   0.09156   1.00
H1       0.59961    0.04326    0.13258   1.00
H1       0.56367    -0.02740   0.10831   1.00
C5       0.40305    0.05389    0.12302   1.00
C5       0.37058    -0.00740   0.11118   1.00
H1       0.64824    0.13677    0.15427   1.00
H1       0.51428    -0.12085   0.08660   1.00
H1       0.47769    0.15979    0.14847   1.00
H1       0.33274    -0.11619   0.08636   1.00
C6       0.36798    0.09483    0.12692   1.00
C6       0.29607    -0.03973   0.10540   1.00
H2       0.40467    0.14882    0.12486   1.00
H2       0.27152    -0.09467   0.10767   1.00
H2       0.33059    0.08622    0.11525   1.00
H2       0.26804    -0.02597   0.11594   1.00
C6       0.33257    0.08037    0.14821   1.00
C6       0.28488    -0.02161   0.08331   1.00
H2       0.36662    0.07917    0.15975   1.00
H2       0.32030    -0.02586   0.07296   1.00
C6       0.30802    0.13013    0.15574   1.00
C6       0.21156    -0.06367   0.07410   1.00
H2       0.28859    0.02878    0.14790   1.00
H2       0.29961    0.03229    0.08311   1.00
C6       0.36890    0.20275    0.15973   1.00
C6       0.19084    -0.13944   0.07079   1.00
C6       0.25853    0.13459    0.14042   1.00
C6       0.15758    -0.06000   0.08764   1.00
C6       0.26936    0.10267    0.17611   1.00
C6       0.21098    -0.03312   0.05306   1.00
H2       0.40539    0.20122    0.17025   1.00
H2       0.22854    -0.14375   0.06155   1.00
H2       0.39596    0.22684    0.14578   1.00
H2       0.18612    -0.16530   0.08514   1.00
H2       0.35163    0.23574    0.16630   1.00
H2       0.14174    -0.16721   0.06309   1.00
H2       0.23794    0.16550    0.14645   1.00
H2       0.10753    -0.08535   0.08040   1.00
H2       0.28452    0.15800    0.12625   1.00
H2       0.15257    -0.08505   0.10217   1.00
H2       0.21590    0.08396    0.13702   1.00
H2       0.17170    -0.00712   0.09056   1.00
H2       0.30234    0.09920    0.18755   1.00
H2       0.24781    -0.03514   0.04281   1.00
H2       0.25155    0.13603    0.18206   1.00
H2       0.16083    -0.06114   0.04594   1.00
H2       0.22491    0.05198    0.17419   1.00
H2       0.22388    0.02004    0.05444   1.00
C4       0.96599    0.47154    0.12920   1.00
C4       1.02280    0.50260    0.11566   1.00
C3       0.96562    0.43460    0.14674   1.00
C3       1.08574    0.50505    0.11982   1.00
C3       0.90682    0.47704    0.12527   1.00
C3       1.01741    0.53269    0.09719   1.00
C2       0.85249    0.41157    0.15714   1.00
C2       1.13658    0.56241    0.08782   1.00
C3       0.91082    0.40578    0.16036   1.00
C3       1.14084    0.53371    0.10631   1.00
C3       0.85224    0.44728    0.13958   1.00
C3       1.07458    0.56102    0.08378   1.00
H1       1.00488    0.42667    0.15018   1.00
H1       1.09414    0.48671    0.13292   1.00
C5       0.90304    0.51114    0.10741   1.00
C5       0.95635    0.53432    0.09257   1.00
H1       0.91380    0.38000    0.17278   1.00
H1       1.18475    0.53364    0.11016   1.00
H1       0.80950    0.45052    0.13738   1.00
H1       1.07253    0.58247    0.07045   1.00
C6       0.84335    0.52288    0.10456   1.00
C6       0.94866    0.55972    0.07204   1.00
H2       0.83295    0.54005    0.11886   1.00
H2       0.96653    0.53843    0.06033   1.00
H2       0.85640    0.56629    0.09475   1.00
H2       0.89538    0.53849    0.06790   1.00
C6       0.77813    0.45897    0.09599   1.00
C6       0.98522    0.63944    0.07067   1.00
H2       0.77028    0.41319    0.10392   1.00
H2       1.03579    0.66167    0.07756   1.00
C6       0.70942    0.45975    0.09666   1.00
C6       0.99374    0.67182    0.04912   1.00
H2       0.78847    0.45205    0.08024   1.00
H2       0.95690    0.65626    0.08018   1.00
C6       0.68523    0.45844    0.11875   1.00
C6       1.04263    0.65952    0.03559   1.00
C6       0.71526    0.52270    0.08551   1.00
C6       0.92426    0.64395    0.03819   1.00
C6       0.65367    0.39479    0.08582   1.00
C6       1.02536    0.75009    0.05159   1.00
H2       0.68166    0.41516    0.12714   1.00
H2       1.09183    0.67765    0.04304   1.00
H2       0.72008    0.50478    0.12692   1.00
H2       1.02152    0.60561    0.03219   1.00
H2       0.63508    0.45422    0.11905   1.00
H2       1.05196    0.68624    0.02114   1.00
H2       0.66592    0.52024    0.08481   1.00
H2       0.93017    0.67035    0.02383   1.00
H2       0.75049    0.56973    0.09335   1.00
H2       0.90194    0.58981    0.03483   1.00
H2       0.73359    0.52563    0.07004   1.00
H2       0.88841    0.65069    0.04759   1.00
H2       0.64698    0.34873    0.09324   1.00
H2       1.07498    0.77249    0.05906   1.00
H2       0.60449    0.39278    0.08601   1.00
H2       1.03275    0.77513    0.03691   1.00
H2       0.66717    0.39345    0.07000   1.00
H2       0.99246    0.76212    0.06068   1.00
C4       0.52922    0.49583    0.12942   1.00
C4       0.49800    0.52172    0.11600   1.00
C3       0.57560    0.53648    0.14494   1.00
C3       0.50530    0.58756    0.11849   1.00
C3       0.51416    0.42678    0.12746   1.00
C3       0.45766    0.48088    0.09938   1.00
C2       0.58981    0.44255    0.15722   1.00
C2       0.43765    0.57549    0.08829   1.00
C3       0.60477    0.51068    0.15850   1.00
C3       0.47638    0.61387    0.10502   1.00
C3       0.54465    0.40235    0.14164   1.00
C3       0.42940    0.50971    0.08595   1.00
H1       0.59045    0.58657    0.14685   1.00
H1       0.53134    0.61860    0.13030   1.00
C5       0.47009    0.38422    0.11159   1.00
C5       0.44611    0.41310    0.09659   1.00
H1       0.63762    0.54255    0.16941   1.00
H1       0.48376    0.66182    0.10761   1.00
H1       0.53481    0.35342    0.14082   1.00
H1       0.40081    0.48243    0.07388   1.00
C6       0.44888    0.30934    0.11102   1.00
C6       0.40951    0.37328    0.07777   1.00
H2       0.43577    0.28853    0.12632   1.00
H2       0.42903    0.40681    0.06462   1.00
H2       0.40072    0.27932    0.10312   1.00
H2       0.42316    0.33484    0.07409   1.00
C6       0.50385    0.29557    0.10116   1.00
C6       0.32995    0.33827    0.07937   1.00
H2       0.55435    0.33248    0.10693   1.00
H2       0.31611    0.37408    0.08590   1.00
C6       0.49452    0.22266    0.10377   1.00
C6       0.28765    0.30874    0.05944   1.00
H2       0.50556    0.30633    0.08495   1.00
H2       0.31282    0.29691    0.09041   1.00
C6       0.50245    0.20745    0.12624   1.00
C6       0.30091    0.36599    0.04408   1.00
C6       0.42435    0.16660    0.09573   1.00
C6       0.30322    0.25650    0.04917   1.00
C6       0.55082    0.21891    0.09135   1.00
C6       0.21065    0.27142    0.06492   1.00
H2       0.55106    0.24676    0.13247   1.00
H2       0.29144    0.40433    0.05098   1.00
H2       0.46185    0.20512    0.13566   1.00
H2       0.35329    0.39170    0.03861   1.00
H2       0.50058    0.15855    0.12771   1.00
H2       0.26776    0.34542    0.03086   1.00
H2       0.42030    0.11653    0.09628   1.00
H2       0.27001    0.23265    0.03611   1.00
H2       0.38293    0.16390    0.10486   1.00
H2       0.35571    0.28116    0.04375   1.00
H2       0.41687    0.17688    0.08006   1.00
H2       0.29566    0.21638    0.05979   1.00
H2       0.60154    0.25709    0.09658   1.00
H2       0.19676    0.30631    0.07205   1.00
H2       0.54670    0.16896    0.09280   1.00
H2       0.17891    0.25024    0.05143   1.00
H2       0.54705    0.22787    0.07526   1.00
H2       0.19778    0.22944    0.07542   1.00
C4       0.70958    0.83938    0.70749   1.00
C4       0.65373    0.81010    0.72140   1.00
C3       0.73610    0.90638    0.69949   1.00
C3       0.62523    0.84817    0.72991   1.00
C3       0.74067    0.80086    0.70115   1.00
C3       0.62470    0.74019    0.72722   1.00
C2       0.82467    0.89988    0.68013   1.00
C2       0.53864    0.75008    0.74877   1.00
C3       0.79208    0.93595    0.68630   1.00
C3       0.56924    0.81910    0.74310   1.00
C3       0.79782    0.83298    0.68779   1.00
C3       0.56747    0.71243    0.74060   1.00
H1       0.71529    0.93597    0.70278   1.00
H1       0.64452    0.89862    0.72701   1.00
C5       0.71442    0.73211    0.70802   1.00
C5       0.65301    0.70007    0.71983   1.00
H1       0.80893    0.98459    0.68113   1.00
H1       0.55090    0.84922    0.74865   1.00
H1       0.82158    0.80740    0.68305   1.00
H1       0.54513    0.66280    0.74498   1.00
C6       0.75219    0.69459    0.70294   1.00
C6       0.61738    0.62443    0.72437   1.00
H2       0.80664    0.72883    0.70518   1.00
H2       0.56269    0.60274    0.72218   1.00
H2       0.74163    0.65461    0.71389   1.00
H2       0.62922    0.59686    0.71309   1.00
C6       0.73629    0.66300    0.68110   1.00
C6       0.63419    0.60790    0.74598   1.00
H2       0.73712    0.70009    0.67032   1.00
H2       0.63201    0.64255    0.75710   1.00
C6       0.78323    0.63644    0.67251   1.00
C6       0.58916    0.53338    0.75407   1.00
H2       0.68372    0.62073    0.68103   1.00
H2       0.68733    0.61997    0.74589   1.00
C6       0.85718    0.69554    0.66903   1.00
C6       0.51443    0.51576    0.75776   1.00
C6       0.78466    0.58264    0.68671   1.00
C6       0.58975    0.48032    0.73937   1.00
C6       0.75452    0.60206    0.65167   1.00
C6       0.61864    0.52724    0.77473   1.00
H2       0.85783    0.73495    0.65932   1.00
H2       0.51233    0.55296    0.76783   1.00
H2       0.88201    0.71937    0.68327   1.00
H2       0.48917    0.51499    0.74363   1.00
H2       0.88826    0.67719    0.66174   1.00
H2       0.48465    0.46556    0.76472   1.00
H2       0.81352    0.56092    0.67991   1.00
H2       0.56227    0.42910    0.74582   1.00
H2       0.80876    0.60539    0.70115   1.00
H2       0.56525    0.47925    0.72503   1.00
H2       0.73308    0.54114    0.68975   1.00
H2       0.64189    0.49239    0.73618   1.00
H2       0.75310    0.63816    0.64098   1.00
H2       0.61870    0.56323    0.78576   1.00
H2       0.78593    0.58303    0.64498   1.00
H2       0.58856    0.47608    0.78108   1.00
H2       0.70280    0.55896    0.65319   1.00
H2       0.67097    0.53776    0.77304   1.00
C4       0.12444    0.29185    0.70697   1.00
C4       0.15107    0.34910    0.72036   1.00
C3       0.13156    0.23380    0.71083   1.00
C3       0.18024    0.34932    0.73953   1.00
C3       0.08930    0.29181    0.68895   1.00
C3       0.14876    0.40881    0.71462   1.00
C2       0.06772    0.17461    0.68042   1.00
C2       0.20795    0.46607    0.74702   1.00
C3       0.10382    0.17677    0.69804   1.00
C3       0.20815    0.40607    0.75243   1.00
C3       0.06148    0.23256    0.67637   1.00
C3       0.17808    0.46566    0.72815   1.00
H1       0.15776    0.23106    0.72298   1.00
H1       0.18169    0.30800    0.74493   1.00
C5       0.08300    0.34996    0.68381   1.00
C5       0.11746    0.41058    0.69589   1.00
H1       0.11049    0.13641    0.70171   1.00
H1       0.22868    0.40309    0.76602   1.00
H1       0.03575    0.23043    0.66350   1.00
H1       0.17784    0.50919    0.72454   1.00
C6       0.03953    0.34636    0.66588   1.00
C6       0.12184    0.47646    0.68902   1.00
H2       -0.00781   0.29750    0.66612   1.00
H2       0.17351    0.51842    0.69154   1.00
H2       0.02084    0.38197    0.66745   1.00
H2       0.11720    0.47803    0.67265   1.00
C6       0.07734    0.35919    0.64504   1.00
C6       0.06741    0.49012    0.69932   1.00
H2       0.10472    0.33085    0.64455   1.00
H2       0.06481    0.47897    0.71553   1.00
C6       0.03333    0.34193    0.62529   1.00
C6       0.07650    0.56300    0.69691   1.00
H2       0.11686    0.41291    0.64446   1.00
H2       0.01746    0.45302    0.69328   1.00
C6       -0.01712   0.26426    0.62330   1.00
C6       0.14129    0.61785    0.70800   1.00
C6       -0.00694   0.38060    0.62448   1.00
C6       0.07987    0.58314    0.67431   1.00
C6       0.08179    0.36426    0.60668   1.00
C6       0.01405    0.56298    0.70665   1.00
H2       0.00963    0.23540    0.62415   1.00
H2       0.14100    0.60454    0.72394   1.00
H2       -0.05542   0.24584    0.63525   1.00
H2       0.18755    0.62357    0.70110   1.00
H2       -0.04416   0.25224    0.60884   1.00
H2       0.14464    0.66760    0.70743   1.00
H2       -0.03356   0.37206    0.61003   1.00
H2       0.08129    0.63183    0.67277   1.00
H2       -0.04515   0.36335    0.63647   1.00
H2       0.12556    0.58847    0.66707   1.00
H2       0.02725    0.43533    0.62628   1.00
H2       0.03550    0.54461    0.66606   1.00
H2       0.11101    0.33782    0.60641   1.00
H2       0.00973    0.54973    0.72272   1.00
H2       0.05332    0.35282    0.59248   1.00
H2       0.01827    0.61304    0.70547   1.00
H2       0.11784    0.41899    0.60700   1.00
H2       -0.03325   0.52617    0.69918   1.00
C4       0.16703    0.87537    0.70704   1.00
C4       0.19763    0.84881    0.72046   1.00
C3       0.10055    0.86559    0.71038   1.00
C3       0.16704    0.81691    0.73922   1.00
C3       0.20353    0.91322    0.68951   1.00
C3       0.26130    0.85397    0.71518   1.00
C2       0.10643    0.93192    0.68045   1.00
C2       0.25779    0.79207    0.74715   1.00
C3       0.07121    0.89323    0.69758   1.00
C3       0.19592    0.78907    0.75213   1.00
C3       0.17198    0.94083    0.67691   1.00
C3       0.28883    0.82463    0.72870   1.00
H1       0.07068    0.83743    0.72214   1.00
H1       0.12296    0.81332    0.74430   1.00
C5       0.26946    0.92232    0.68488   1.00
C5       0.29595    0.88806    0.69691   1.00
H1       0.02318    0.88456    0.70087   1.00
H1       0.17119    0.76650    0.76541   1.00
H1       0.19652    0.96842    0.66438   1.00
H1       0.33377    0.82688    0.72540   1.00
C6       0.31049    0.96849    0.66753   1.00
C6       0.35947    0.88678    0.69045   1.00
H2       0.30715    1.01483    0.66807   1.00
H2       0.35121    0.83546    0.69255   1.00
H2       0.36486    0.98860    0.66961   1.00
H2       0.36750    0.89346    0.67416   1.00
C6       0.28887    0.93293    0.64628   1.00
C6       0.42555    0.94143    0.70158   1.00
H2       0.23325    0.90412    0.64521   1.00
H2       0.41488    0.94178    0.71774   1.00
C6       0.31674    0.97936    0.62703   1.00
C6       0.49105    0.93509    0.69957   1.00
H2       0.30484    0.89474    0.64554   1.00
H2       0.43747    0.99159    0.69596   1.00
C6       0.28742    1.02810    0.62517   1.00
C6       0.48205    0.86990    0.71015   1.00
C6       0.39566    1.02181    0.62704   1.00
C6       0.51085    0.93503    0.67708   1.00
C6       0.29409    0.93306    0.60792   1.00
C6       0.55114    0.99747    0.71015   1.00
H2       0.23173    0.99975    0.62545   1.00
H2       0.46696    0.86785    0.72599   1.00
H2       0.30485    1.06499    0.63751   1.00
H2       0.44331    0.82386    0.70267   1.00
H2       0.30335    1.05684    0.61101   1.00
H2       0.52944    0.86835    0.70989   1.00
H2       0.41473    1.05025    0.61290   1.00
H2       0.55917    0.93552    0.67587   1.00
H2       0.41418    1.05864    0.63942   1.00
H2       0.47231    0.88960    0.66926   1.00
H2       0.41760    0.98880    0.62876   1.00
H2       0.51610    0.97972    0.66917   1.00
H2       0.23858    0.90242    0.60707   1.00
H2       0.54004    0.99951    0.72617   1.00
H2       0.31199    0.96325    0.59404   1.00
H2       0.59807    0.99512    0.70927   1.00
H2       0.31439    0.89834    0.60814   1.00
H2       0.56093    1.04511    0.70308   1.00
