data_IRMOF10_interpen_symm_ligand1lp_symm_g

_audit_creation_method             'generated by an auxiliary program of Tobunporous'

_symmetry_space_group_name_H-M     'P 1'
_symmetry_Int_Tables_number        1
_symmetry_cell_setting             triclinic

_cell_length_a                    22.6523
_cell_length_b                    22.6523
_cell_length_c                    65.9502
_cell_angle_alpha                 90.0000
_cell_angle_beta                  90.0000
_cell_angle_gamma                 120.0000

loop_
_atom_site_label
_atom_site_fract_x
_atom_site_fract_y
_atom_site_fract_z
_atom_site_occupancy
O1       0.00000    -0.00000   0.62500   1.00
Zn      0.00000    -0.00000   0.59589   1.00
Zn      0.94848    1.04288    0.63392   1.00
Zn      0.09439    0.05152    0.63392   1.00
Zn      -0.04288   0.90561    0.63392   1.00
O2       0.93860    0.02610    0.58587   1.00
O2       0.08750    0.06140    0.58587   1.00
O2       -0.02610   0.91250    0.58587   1.00
O2       0.91305    0.07161    0.61181   1.00
O2       0.00462    0.12022    0.65110   1.00
O2       0.87413    0.98074    0.65071   1.00
O2       0.15856    0.08695    0.61181   1.00
O2       0.10660    0.12587    0.65071   1.00
O2       0.11559    0.99538    0.65110   1.00
O2       -0.07161   0.84144    0.61181   1.00
O2       0.87978    0.88441    0.65110   1.00
O2       0.01926    0.89340    0.65071   1.00
C1       0.91390    0.06020    0.59358   1.00
C1       0.14630    0.08610    0.59358   1.00
C1       -0.06020   0.85370    0.59358   1.00
C1       0.06663    0.14397    0.65673   1.00
C1       0.85603    0.92267    0.65673   1.00
C1       0.07733    0.93337    0.65673   1.00
O1       -0.00000   0.00000    0.87500   1.00
Zn      -0.00000   0.00000    0.90411   1.00
Zn      1.04288    0.94848    0.86608   1.00
Zn      0.05152    0.09439    0.86608   1.00
Zn      0.90561    -0.04288   0.86608   1.00
O2       0.02610    0.93860    0.91413   1.00
O2       0.06140    0.08750    0.91413   1.00
O2       0.91250    -0.02610   0.91413   1.00
O2       0.07161    0.91305    0.88819   1.00
O2       0.12022    0.00462    0.84890   1.00
O2       0.98074    0.87413    0.84929   1.00
O2       0.08695    0.15856    0.88819   1.00
O2       0.12587    0.10660    0.84929   1.00
O2       0.99538    0.11559    0.84890   1.00
O2       0.84144    -0.07161   0.88819   1.00
O2       0.88441    0.87978    0.84890   1.00
O2       0.89340    0.01926    0.84929   1.00
C1       0.06020    0.91390    0.90642   1.00
C1       0.08610    0.14630    0.90642   1.00
C1       0.85370    -0.06020   0.90642   1.00
C1       0.14397    0.06663    0.84327   1.00
C1       0.92267    0.85603    0.84327   1.00
C1       0.93337    0.07733    0.84327   1.00
O1       0.00000    0.00000    0.37500   1.00
Zn      0.00000    0.00000    0.40411   1.00
Zn      0.05152    -0.04288   0.36608   1.00
Zn      0.90561    0.94848    0.36608   1.00
Zn      1.04288    0.09439    0.36608   1.00
O2       0.06140    -0.02610   0.41413   1.00
O2       0.91250    0.93860    0.41413   1.00
O2       0.02610    0.08750    0.41413   1.00
O2       0.08695    -0.07161   0.38819   1.00
O2       0.99538    0.87978    0.34890   1.00
O2       0.12587    0.01926    0.34929   1.00
O2       0.84144    0.91305    0.38819   1.00
O2       0.89340    0.87413    0.34929   1.00
O2       0.88441    0.00462    0.34890   1.00
O2       0.07161    0.15856    0.38819   1.00
O2       0.12022    0.11559    0.34890   1.00
O2       0.98074    0.10660    0.34929   1.00
C1       0.08610    -0.06020   0.40642   1.00
C1       0.85370    0.91390    0.40642   1.00
C1       0.06020    0.14630    0.40642   1.00
C1       0.93337    0.85603    0.34327   1.00
C1       0.14397    0.07733    0.34327   1.00
C1       0.92267    0.06663    0.34327   1.00
O1       0.00000    0.00000    0.12500   1.00
Zn      0.00000    0.00000    0.09589   1.00
Zn      -0.04288   0.05152    0.13392   1.00
Zn      0.94848    0.90561    0.13392   1.00
Zn      0.09439    1.04288    0.13392   1.00
O2       -0.02610   0.06140    0.08587   1.00
O2       0.93860    0.91250    0.08587   1.00
O2       0.08750    0.02610    0.08587   1.00
O2       -0.07161   0.08695    0.11181   1.00
O2       0.87978    0.99538    0.15110   1.00
O2       0.01926    0.12587    0.15071   1.00
O2       0.91305    0.84144    0.11181   1.00
O2       0.87413    0.89340    0.15071   1.00
O2       0.00462    0.88441    0.15110   1.00
O2       0.15856    0.07161    0.11181   1.00
O2       0.11559    0.12022    0.15110   1.00
O2       0.10660    0.98074    0.15071   1.00
C1       -0.06020   0.08610    0.09358   1.00
C1       0.91390    0.85370    0.09358   1.00
C1       0.14630    0.06020    0.09358   1.00
C1       0.85603    0.93337    0.15673   1.00
C1       0.07733    0.14397    0.15673   1.00
C1       0.06663    0.92267    0.15673   1.00
O1       0.66667    0.33333    0.95833   1.00
Zn      0.66667    0.33333    0.92922   1.00
Zn      0.61515    0.37621    0.96725   1.00
Zn      0.76106    0.38485    0.96725   1.00
Zn      -0.37621   0.23894    0.96725   1.00
O2       0.60527    0.35943    0.91920   1.00
O2       0.75417    0.39473    0.91920   1.00
O2       0.64057    0.24583    0.91920   1.00
O2       0.57972    0.40494    0.94514   1.00
O2       0.67129    0.45355    0.98443   1.00
O2       0.54080    0.31407    0.98404   1.00
O2       0.82523    0.42028    0.94514   1.00
O2       0.77327    0.45920    0.98404   1.00
O2       -0.21774   0.32871    0.98443   1.00
O2       0.59506    0.17477    0.94514   1.00
O2       0.54645    0.21774    0.98443   1.00
O2       -0.31407   0.22673    0.98404   1.00
C1       0.58057    0.39353    0.92691   1.00
C1       0.81297    0.41943    0.92691   1.00
C1       0.60647    0.18703    0.92691   1.00
C1       0.73330    0.47730    0.99006   1.00
C1       0.52270    0.25600    0.99006   1.00
C1       -0.25600   0.26670    0.99006   1.00
O1       0.66667    0.33333    0.20833   1.00
Zn      0.66667    0.33333    0.23744   1.00
Zn      0.70954    0.28182    0.19942   1.00
Zn      0.71818    0.42773    0.19942   1.00
Zn      0.57227    0.29046    0.19942   1.00
O2       0.69277    0.27193    0.24746   1.00
O2       0.72807    0.42083    0.24746   1.00
O2       0.57917    0.30723    0.24746   1.00
O2       0.73828    0.24638    0.22152   1.00
O2       0.78688    0.33796    0.18224   1.00
O2       0.64740    0.20747    0.18263   1.00
O2       0.75362    0.49189    0.22152   1.00
O2       0.79253    0.43994    0.18263   1.00
O2       0.66204    0.44893    0.18224   1.00
O2       0.50811    0.26172    0.22152   1.00
O2       0.55107    0.21312    0.18224   1.00
O2       0.56006    0.35260    0.18263   1.00
C1       0.72687    0.24723    0.23975   1.00
C1       0.75277    0.47963    0.23975   1.00
C1       0.52037    0.27313    0.23975   1.00
C1       0.81063    0.39997    0.17661   1.00
C1       0.58933    0.18937    0.17661   1.00
C1       0.60003    0.41067    0.17661   1.00
O1       0.66667    0.33333    0.70833   1.00
Zn      0.66667    0.33333    0.73744   1.00
Zn      0.71818    0.29046    0.69942   1.00
Zn      0.57227    0.28182    0.69942   1.00
Zn      0.70954    0.42773    0.69942   1.00
O2       0.72807    0.30723    0.74746   1.00
O2       0.57917    0.27193    0.74746   1.00
O2       0.69277    0.42083    0.74746   1.00
O2       0.75362    0.26172    0.72152   1.00
O2       0.66204    0.21312    0.68224   1.00
O2       0.79253    0.35260    0.68263   1.00
O2       0.50811    0.24638    0.72152   1.00
O2       0.56006    0.20747    0.68263   1.00
O2       0.55107    0.33796    0.68224   1.00
O2       0.73828    0.49189    0.72152   1.00
O2       0.78688    0.44893    0.68224   1.00
O2       0.64740    0.43994    0.68263   1.00
C1       0.75277    0.27313    0.73975   1.00
C1       0.52037    0.24723    0.73975   1.00
C1       0.72687    0.47963    0.73975   1.00
C1       0.60003    0.18937    0.67661   1.00
C1       0.81063    0.41067    0.67661   1.00
C1       0.58933    0.39997    0.67661   1.00
O1       0.66667    0.33333    0.45833   1.00
Zn      0.66667    0.33333    0.42922   1.00
Zn      -0.37621   0.38485    0.46725   1.00
Zn      0.61515    0.23894    0.46725   1.00
Zn      0.76106    0.37621    0.46725   1.00
O2       0.64057    0.39473    0.41920   1.00
O2       0.60527    0.24583    0.41920   1.00
O2       0.75417    0.35943    0.41920   1.00
O2       0.59506    0.42028    0.44514   1.00
O2       0.54645    0.32871    0.48443   1.00
O2       -0.31407   0.45920    0.48404   1.00
O2       0.57972    0.17477    0.44514   1.00
O2       0.54080    0.22673    0.48404   1.00
O2       0.67129    0.21774    0.48443   1.00
O2       0.82523    0.40494    0.44514   1.00
O2       -0.21774   0.45355    0.48443   1.00
O2       0.77327    0.31407    0.48404   1.00
C1       0.60647    0.41943    0.42691   1.00
C1       0.58057    0.18703    0.42691   1.00
C1       0.81297    0.39353    0.42691   1.00
C1       0.52270    0.26670    0.49006   1.00
C1       -0.25600   0.47730    0.49006   1.00
C1       0.73330    0.25600    0.49006   1.00
O1       0.33333    0.66667    0.29167   1.00
Zn      0.33333    0.66667    0.26256   1.00
Zn      0.28182    0.70954    0.30058   1.00
Zn      0.42773    0.71818    0.30058   1.00
Zn      0.29046    0.57227    0.30058   1.00
O2       0.27193    0.69277    0.25254   1.00
O2       0.42083    0.72807    0.25254   1.00
O2       0.30723    0.57917    0.25254   1.00
O2       0.24638    0.73828    0.27848   1.00
O2       0.33796    0.78688    0.31776   1.00
O2       0.20747    0.64740    0.31737   1.00
O2       0.49189    0.75362    0.27848   1.00
O2       0.43994    0.79253    0.31737   1.00
O2       0.44893    0.66204    0.31776   1.00
O2       0.26172    0.50811    0.27848   1.00
O2       0.21312    0.55107    0.31776   1.00
O2       0.35260    0.56006    0.31737   1.00
C1       0.24723    0.72687    0.26025   1.00
C1       0.47963    0.75277    0.26025   1.00
C1       0.27313    0.52037    0.26025   1.00
C1       0.39997    0.81063    0.32339   1.00
C1       0.18937    0.58933    0.32339   1.00
C1       0.41067    0.60003    0.32339   1.00
O1       0.33333    0.66667    0.54167   1.00
Zn      0.33333    0.66667    0.57078   1.00
Zn      0.37621    0.61515    0.53275   1.00
Zn      0.38485    0.76106    0.53275   1.00
Zn      0.23894    -0.37621   0.53275   1.00
O2       0.35943    0.60527    0.58080   1.00
O2       0.39473    0.75417    0.58080   1.00
O2       0.24583    0.64057    0.58080   1.00
O2       0.40494    0.57972    0.55486   1.00
O2       0.45355    0.67129    0.51557   1.00
O2       0.31407    0.54080    0.51596   1.00
O2       0.42028    0.82523    0.55486   1.00
O2       0.45920    0.77327    0.51596   1.00
O2       0.32871    -0.21774   0.51557   1.00
O2       0.17477    0.59506    0.55486   1.00
O2       0.21774    0.54645    0.51557   1.00
O2       0.22673    -0.31407   0.51596   1.00
C1       0.39353    0.58057    0.57309   1.00
C1       0.41943    0.81297    0.57309   1.00
C1       0.18703    0.60647    0.57309   1.00
C1       0.47730    0.73330    0.50994   1.00
C1       0.25600    0.52270    0.50994   1.00
C1       0.26670    -0.25600   0.50994   1.00
O1       0.33333    0.66667    0.04167   1.00
Zn      0.33333    0.66667    0.07078   1.00
Zn      0.38485    -0.37621   0.03275   1.00
Zn      0.23894    0.61515    0.03275   1.00
Zn      0.37621    0.76106    0.03275   1.00
O2       0.39473    0.64057    0.08080   1.00
O2       0.24583    0.60527    0.08080   1.00
O2       0.35943    0.75417    0.08080   1.00
O2       0.42028    0.59506    0.05486   1.00
O2       0.32871    0.54645    0.01557   1.00
O2       0.45920    -0.31407   0.01596   1.00
O2       0.17477    0.57972    0.05486   1.00
O2       0.22673    0.54080    0.01596   1.00
O2       0.21774    0.67129    0.01557   1.00
O2       0.40494    0.82523    0.05486   1.00
O2       0.45355    -0.21774   0.01557   1.00
O2       0.31407    0.77327    0.01596   1.00
C1       0.41943    0.60647    0.07309   1.00
C1       0.18703    0.58057    0.07309   1.00
C1       0.39353    0.81297    0.07309   1.00
C1       0.26670    0.52270    0.00994   1.00
C1       0.47730    -0.25600   0.00994   1.00
C1       0.25600    0.73330    0.00994   1.00
O1       0.33333    0.66667    0.79167   1.00
Zn      0.33333    0.66667    0.76256   1.00
Zn      0.29046    0.71818    0.80058   1.00
Zn      0.28182    0.57227    0.80058   1.00
Zn      0.42773    0.70954    0.80058   1.00
O2       0.30723    0.72807    0.75254   1.00
O2       0.27193    0.57917    0.75254   1.00
O2       0.42083    0.69277    0.75254   1.00
O2       0.26172    0.75362    0.77848   1.00
O2       0.21312    0.66204    0.81776   1.00
O2       0.35260    0.79253    0.81737   1.00
O2       0.24638    0.50811    0.77848   1.00
O2       0.20747    0.56006    0.81737   1.00
O2       0.33796    0.55107    0.81776   1.00
O2       0.49189    0.73828    0.77848   1.00
O2       0.44893    0.78688    0.81776   1.00
O2       0.43994    0.64740    0.81737   1.00
C1       0.27313    0.75277    0.76025   1.00
C1       0.24723    0.52037    0.76025   1.00
C1       0.47963    0.72687    0.76025   1.00
C1       0.18937    0.60003    0.82339   1.00
C1       0.41067    0.81063    0.82339   1.00
C1       0.39997    0.58933    0.82339   1.00
C2       -0.22580   0.53210    0.50635   1.00
C3       -0.25980   0.56170    0.51324   1.00
H1       -0.30380   0.54640    0.50851   1.00
C3       -0.16230   0.55400    0.51380   1.00
H1       -0.13800   0.53330    0.50941   1.00
C4       -0.23250   0.61400    0.52713   1.00
C5       -0.27150   0.64770    0.53509   1.00
H2       -0.29880   0.62240    0.54651   1.00
H2       -0.30050   0.64840    0.52461   1.00
H2       -0.23990   0.69350    0.53921   1.00
C4       -0.13290   0.60620    0.52781   1.00
C5       -0.06090   0.62970    0.53665   1.00
H2       -0.02740   0.66780    0.52901   1.00
H2       -0.05150   0.59290    0.53591   1.00
H2       -0.05940   0.64300    0.55051   1.00
C6       -0.16850   0.63610    0.53494   1.00
C6       -0.13780   0.69140    0.55020   1.00
C4       -0.14960   0.67660    0.57067   1.00
C5       -0.18600   0.60470    0.57757   1.00
H2       -0.23390   0.58890    0.57851   1.00
H2       -0.16920   0.60160    0.59061   1.00
H2       -0.17840   0.57710    0.56801   1.00
C4       -0.09850   0.75790    0.54324   1.00
C5       -0.08470   0.77730    0.52080   1.00
H2       -0.04500   0.77550    0.51651   1.00
H2       -0.07700   0.82260    0.51891   1.00
H2       -0.12320   0.74580    0.51291   1.00
C3       -0.12280   0.72980    0.58450   1.00
H1       -0.12970   0.72000    0.59831   1.00
C3       -0.07390   0.81040    0.55847   1.00
H1       -0.04840   0.85560    0.55441   1.00
C2       -0.08630   0.79640    0.57845   1.00
C2       0.46790    0.24210    0.50635   1.00
C3       0.43830    0.17850    0.51324   1.00
H1       0.45360    0.14980    0.50851   1.00
C3       0.44600    0.28370    0.51380   1.00
H1       0.46670    0.32870    0.50941   1.00
C4       0.38600    0.15350    0.52713   1.00
C5       0.35230    0.08080    0.53509   1.00
H2       0.37760    0.07880    0.54651   1.00
H2       0.35160    0.05110    0.52461   1.00
H2       0.30650    0.06660    0.53921   1.00
C4       0.39380    0.26090    0.52781   1.00
C5       0.37030    0.30940    0.53665   1.00
H2       0.33220    0.30480    0.52901   1.00
H2       0.40710    0.35560    0.53591   1.00
H2       0.35700    0.29760    0.55051   1.00
C6       0.36390    0.19540    0.53494   1.00
C6       0.30860    0.17080    0.55020   1.00
C4       0.32340    0.17380    0.57067   1.00
C5       0.39530    0.20930    0.57757   1.00
H2       0.41110    0.17720    0.57851   1.00
H2       0.39840    0.22920    0.59061   1.00
H2       0.42290    0.24450    0.56801   1.00
C4       0.24210    0.14360    0.54324   1.00
C5       0.22270    0.13800    0.52080   1.00
H2       0.22450    0.17950    0.51651   1.00
H2       0.17740    0.10040    0.51891   1.00
H2       0.25420    0.13100    0.51291   1.00
C3       0.27020    0.14740    0.58450   1.00
H1       0.28000    0.15030    0.59831   1.00
C3       0.18960    0.11570    0.55847   1.00
H1       0.14440    0.09600    0.55441   1.00
C2       0.20360    0.11730    0.57845   1.00
C2       0.75790    0.22580    0.50635   1.00
C3       0.82150    0.25980    0.51324   1.00
H1       0.85020    0.30380    0.50851   1.00
C3       0.71630    0.16230    0.51380   1.00
H1       0.67130    0.13800    0.50941   1.00
C4       0.84650    0.23250    0.52713   1.00
C5       0.91920    0.27150    0.53509   1.00
H2       0.92120    0.29880    0.54651   1.00
H2       0.94890    0.30050    0.52461   1.00
H2       0.93340    0.23990    0.53921   1.00
C4       0.73910    0.13290    0.52781   1.00
C5       0.69060    0.06090    0.53665   1.00
H2       0.69520    0.02740    0.52901   1.00
H2       0.64440    0.05150    0.53591   1.00
H2       0.70240    0.05940    0.55051   1.00
C6       0.80460    0.16850    0.53494   1.00
C6       0.82920    0.13780    0.55020   1.00
C4       0.82620    0.14960    0.57067   1.00
C5       0.79070    0.18600    0.57757   1.00
H2       0.82280    0.23390    0.57851   1.00
H2       0.77080    0.16920    0.59061   1.00
H2       0.75550    0.17840    0.56801   1.00
C4       0.85640    0.09850    0.54324   1.00
C5       0.86200    0.08470    0.52080   1.00
H2       0.82050    0.04500    0.51651   1.00
H2       0.89960    0.07700    0.51891   1.00
H2       0.86900    0.12320    0.51291   1.00
C3       0.85260    0.12280    0.58450   1.00
H1       0.84970    0.12970    0.59831   1.00
C3       0.88430    0.07390    0.55847   1.00
H1       0.90400    0.04840    0.55441   1.00
C2       0.88270    0.08630    0.57845   1.00
C2       0.53210    -0.22580   0.99365   1.00
C3       0.56170    -0.25980   0.98676   1.00
H1       0.54640    -0.30380   0.99149   1.00
C3       0.55400    -0.16230   0.98620   1.00
H1       0.53330    -0.13800   0.99059   1.00
C4       0.61400    -0.23250   0.97287   1.00
C5       0.64770    -0.27150   0.96491   1.00
H2       0.62240    -0.29880   0.95349   1.00
H2       0.64840    -0.30050   0.97539   1.00
H2       0.69350    -0.23990   0.96079   1.00
C4       0.60620    -0.13290   0.97219   1.00
C5       0.62970    -0.06090   0.96335   1.00
H2       0.66780    -0.02740   0.97099   1.00
H2       0.59290    -0.05150   0.96409   1.00
H2       0.64300    -0.05940   0.94949   1.00
C6       0.63610    -0.16850   0.96506   1.00
C6       0.69140    -0.13780   0.94980   1.00
C4       0.67660    -0.14960   0.92933   1.00
C5       0.60470    -0.18600   0.92243   1.00
H2       0.58890    -0.23390   0.92149   1.00
H2       0.60160    -0.16920   0.90939   1.00
H2       0.57710    -0.17840   0.93199   1.00
C4       0.75790    -0.09850   0.95676   1.00
C5       0.77730    -0.08470   0.97920   1.00
H2       0.77550    -0.04500   0.98349   1.00
H2       0.82260    -0.07700   0.98109   1.00
H2       0.74580    -0.12320   0.98709   1.00
C3       0.72980    -0.12280   0.91550   1.00
H1       0.72000    -0.12970   0.90169   1.00
C3       0.81040    -0.07390   0.94153   1.00
H1       0.85560    -0.04840   0.94559   1.00
C2       0.79640    -0.08630   0.92155   1.00
C2       0.24210    0.46790    0.99365   1.00
C3       0.17850    0.43830    0.98676   1.00
H1       0.14980    0.45360    0.99149   1.00
C3       0.28370    0.44600    0.98620   1.00
H1       0.32870    0.46670    0.99059   1.00
C4       0.15350    0.38600    0.97287   1.00
C5       0.08080    0.35230    0.96491   1.00
H2       0.07880    0.37760    0.95349   1.00
H2       0.05110    0.35160    0.97539   1.00
H2       0.06660    0.30650    0.96079   1.00
C4       0.26090    0.39380    0.97219   1.00
C5       0.30940    0.37030    0.96335   1.00
H2       0.30480    0.33220    0.97099   1.00
H2       0.35560    0.40710    0.96409   1.00
H2       0.29760    0.35700    0.94949   1.00
C6       0.19540    0.36390    0.96506   1.00
C6       0.17080    0.30860    0.94980   1.00
C4       0.17380    0.32340    0.92933   1.00
C5       0.20930    0.39530    0.92243   1.00
H2       0.17720    0.41110    0.92149   1.00
H2       0.22920    0.39840    0.90939   1.00
H2       0.24450    0.42290    0.93199   1.00
C4       0.14360    0.24210    0.95676   1.00
C5       0.13800    0.22270    0.97920   1.00
H2       0.17950    0.22450    0.98349   1.00
H2       0.10040    0.17740    0.98109   1.00
H2       0.13100    0.25420    0.98709   1.00
C3       0.14740    0.27020    0.91550   1.00
H1       0.15030    0.28000    0.90169   1.00
C3       0.11570    0.18960    0.94153   1.00
H1       0.09600    0.14440    0.94559   1.00
C2       0.11730    0.20360    0.92155   1.00
C2       0.22580    0.75790    0.99365   1.00
C3       0.25980    0.82150    0.98676   1.00
H1       0.30380    0.85020    0.99149   1.00
C3       0.16230    0.71630    0.98620   1.00
H1       0.13800    0.67130    0.99059   1.00
C4       0.23250    0.84650    0.97287   1.00
C5       0.27150    0.91920    0.96491   1.00
H2       0.29880    0.92120    0.95349   1.00
H2       0.30050    0.94890    0.97539   1.00
H2       0.23990    0.93340    0.96079   1.00
C4       0.13290    0.73910    0.97219   1.00
C5       0.06090    0.69060    0.96335   1.00
H2       0.02740    0.69520    0.97099   1.00
H2       0.05150    0.64440    0.96409   1.00
H2       0.05940    0.70240    0.94949   1.00
C6       0.16850    0.80460    0.96506   1.00
C6       0.13780    0.82920    0.94980   1.00
C4       0.14960    0.82620    0.92933   1.00
C5       0.18600    0.79070    0.92243   1.00
H2       0.23390    0.82280    0.92149   1.00
H2       0.16920    0.77080    0.90939   1.00
H2       0.17840    0.75550    0.93199   1.00
C4       0.09850    0.85640    0.95676   1.00
C5       0.08470    0.86200    0.97920   1.00
H2       0.04500    0.82050    0.98349   1.00
H2       0.07700    0.89960    0.98109   1.00
H2       0.12320    0.86900    0.98709   1.00
C3       0.12280    0.85260    0.91550   1.00
H1       0.12970    0.84970    0.90169   1.00
C3       0.07390    0.88430    0.94153   1.00
H1       0.04840    0.90400    0.94559   1.00
C2       0.08630    0.88270    0.92155   1.00
C2       0.22580    0.46790    0.49365   1.00
C3       0.25980    0.43830    0.48676   1.00
H1       0.30380    0.45360    0.49149   1.00
C3       0.16230    0.44600    0.48620   1.00
H1       0.13800    0.46670    0.49059   1.00
C4       0.23250    0.38600    0.47287   1.00
C5       0.27150    0.35230    0.46491   1.00
H2       0.29880    0.37760    0.45349   1.00
H2       0.30050    0.35160    0.47539   1.00
H2       0.23990    0.30650    0.46079   1.00
C4       0.13290    0.39380    0.47219   1.00
C5       0.06090    0.37030    0.46335   1.00
H2       0.02740    0.33220    0.47099   1.00
H2       0.05150    0.40710    0.46409   1.00
H2       0.05940    0.35700    0.44949   1.00
C6       0.16850    0.36390    0.46506   1.00
C6       0.13780    0.30860    0.44980   1.00
C4       0.14960    0.32340    0.42933   1.00
C5       0.18600    0.39530    0.42243   1.00
H2       0.23390    0.41110    0.42149   1.00
H2       0.16920    0.39840    0.40939   1.00
H2       0.17840    0.42290    0.43199   1.00
C4       0.09850    0.24210    0.45676   1.00
C5       0.08470    0.22270    0.47920   1.00
H2       0.04500    0.22450    0.48349   1.00
H2       0.07700    0.17740    0.48109   1.00
H2       0.12320    0.25420    0.48709   1.00
C3       0.12280    0.27020    0.41550   1.00
H1       0.12970    0.28000    0.40169   1.00
C3       0.07390    0.18960    0.44153   1.00
H1       0.04840    0.14440    0.44559   1.00
C2       0.08630    0.20360    0.42155   1.00
C2       0.53210    0.75790    0.49365   1.00
C3       0.56170    0.82150    0.48676   1.00
H1       0.54640    0.85020    0.49149   1.00
C3       0.55400    0.71630    0.48620   1.00
H1       0.53330    0.67130    0.49059   1.00
C4       0.61400    0.84650    0.47287   1.00
C5       0.64770    0.91920    0.46491   1.00
H2       0.62240    0.92120    0.45349   1.00
H2       0.64840    0.94890    0.47539   1.00
H2       0.69350    0.93340    0.46079   1.00
C4       0.60620    0.73910    0.47219   1.00
C5       0.62970    0.69060    0.46335   1.00
H2       0.66780    0.69520    0.47099   1.00
H2       0.59290    0.64440    0.46409   1.00
H2       0.64300    0.70240    0.44949   1.00
C6       0.63610    0.80460    0.46506   1.00
C6       0.69140    0.82920    0.44980   1.00
C4       0.67660    0.82620    0.42933   1.00
C5       0.60470    0.79070    0.42243   1.00
H2       0.58890    0.82280    0.42149   1.00
H2       0.60160    0.77080    0.40939   1.00
H2       0.57710    0.75550    0.43199   1.00
C4       0.75790    0.85640    0.45676   1.00
C5       0.77730    0.86200    0.47920   1.00
H2       0.77550    0.82050    0.48349   1.00
H2       0.82260    0.89960    0.48109   1.00
H2       0.74580    0.86900    0.48709   1.00
C3       0.72980    0.85260    0.41550   1.00
H1       0.72000    0.84970    0.40169   1.00
C3       0.81040    0.88430    0.44153   1.00
H1       0.85560    0.90400    0.44559   1.00
C2       0.79640    0.88270    0.42155   1.00
C2       0.24210    -0.22580   0.49365   1.00
C3       0.17850    -0.25980   0.48676   1.00
H1       0.14980    -0.30380   0.49149   1.00
C3       0.28370    -0.16230   0.48620   1.00
H1       0.32870    -0.13800   0.49059   1.00
C4       0.15350    -0.23250   0.47287   1.00
C5       0.08080    -0.27150   0.46491   1.00
H2       0.07880    -0.29880   0.45349   1.00
H2       0.05110    -0.30050   0.47539   1.00
H2       0.06660    -0.23990   0.46079   1.00
C4       0.26090    -0.13290   0.47219   1.00
C5       0.30940    -0.06090   0.46335   1.00
H2       0.30480    -0.02740   0.47099   1.00
H2       0.35560    -0.05150   0.46409   1.00
H2       0.29760    -0.05940   0.44949   1.00
C6       0.19540    -0.16850   0.46506   1.00
C6       0.17080    -0.13780   0.44980   1.00
C4       0.17380    -0.14960   0.42933   1.00
C5       0.20930    -0.18600   0.42243   1.00
H2       0.17720    -0.23390   0.42149   1.00
H2       0.22920    -0.16920   0.40939   1.00
H2       0.24450    -0.17840   0.43199   1.00
C4       0.14360    -0.09850   0.45676   1.00
C5       0.13800    -0.08470   0.47920   1.00
H2       0.17950    -0.04500   0.48349   1.00
H2       0.10040    -0.07700   0.48109   1.00
H2       0.13100    -0.12320   0.48709   1.00
C3       0.14740    -0.12280   0.41550   1.00
H1       0.15030    -0.12970   0.40169   1.00
C3       0.11570    -0.07390   0.44153   1.00
H1       0.09600    -0.04840   0.44559   1.00
C2       0.11730    -0.08630   0.42155   1.00
C2       0.46790    0.22580    0.00635   1.00
C3       0.43830    0.25980    0.01324   1.00
H1       0.45360    0.30380    0.00851   1.00
C3       0.44600    0.16230    0.01380   1.00
H1       0.46670    0.13800    0.00941   1.00
C4       0.38600    0.23250    0.02713   1.00
C5       0.35230    0.27150    0.03509   1.00
H2       0.37760    0.29880    0.04651   1.00
H2       0.35160    0.30050    0.02461   1.00
H2       0.30650    0.23990    0.03921   1.00
C4       0.39380    0.13290    0.02781   1.00
C5       0.37030    0.06090    0.03665   1.00
H2       0.33220    0.02740    0.02901   1.00
H2       0.40710    0.05150    0.03591   1.00
H2       0.35700    0.05940    0.05051   1.00
C6       0.36390    0.16850    0.03494   1.00
C6       0.30860    0.13780    0.05020   1.00
C4       0.32340    0.14960    0.07067   1.00
C5       0.39530    0.18600    0.07757   1.00
H2       0.41110    0.23390    0.07851   1.00
H2       0.39840    0.16920    0.09061   1.00
H2       0.42290    0.17840    0.06801   1.00
C4       0.24210    0.09850    0.04324   1.00
C5       0.22270    0.08470    0.02080   1.00
H2       0.22450    0.04500    0.01651   1.00
H2       0.17740    0.07700    0.01891   1.00
H2       0.25420    0.12320    0.01291   1.00
C3       0.27020    0.12280    0.08450   1.00
H1       0.28000    0.12970    0.09831   1.00
C3       0.18960    0.07390    0.05847   1.00
H1       0.14440    0.04840    0.05441   1.00
C2       0.20360    0.08630    0.07845   1.00
C2       0.75790    0.53210    0.00635   1.00
C3       0.82150    0.56170    0.01324   1.00
H1       0.85020    0.54640    0.00851   1.00
C3       0.71630    0.55400    0.01380   1.00
H1       0.67130    0.53330    0.00941   1.00
C4       0.84650    0.61400    0.02713   1.00
C5       0.91920    0.64770    0.03509   1.00
H2       0.92120    0.62240    0.04651   1.00
H2       0.94890    0.64840    0.02461   1.00
H2       0.93340    0.69350    0.03921   1.00
C4       0.73910    0.60620    0.02781   1.00
C5       0.69060    0.62970    0.03665   1.00
H2       0.69520    0.66780    0.02901   1.00
H2       0.64440    0.59290    0.03591   1.00
H2       0.70240    0.64300    0.05051   1.00
C6       0.80460    0.63610    0.03494   1.00
C6       0.82920    0.69140    0.05020   1.00
C4       0.82620    0.67660    0.07067   1.00
C5       0.79070    0.60470    0.07757   1.00
H2       0.82280    0.58890    0.07851   1.00
H2       0.77080    0.60160    0.09061   1.00
H2       0.75550    0.57710    0.06801   1.00
C4       0.85640    0.75790    0.04324   1.00
C5       0.86200    0.77730    0.02080   1.00
H2       0.82050    0.77550    0.01651   1.00
H2       0.89960    0.82260    0.01891   1.00
H2       0.86900    0.74580    0.01291   1.00
C3       0.85260    0.72980    0.08450   1.00
H1       0.84970    0.72000    0.09831   1.00
C3       0.88430    0.81040    0.05847   1.00
H1       0.90400    0.85560    0.05441   1.00
C2       0.88270    0.79640    0.07845   1.00
C2       -0.22580   0.24210    0.00635   1.00
C3       -0.25980   0.17850    0.01324   1.00
H1       -0.30380   0.14980    0.00851   1.00
C3       -0.16230   0.28370    0.01380   1.00
H1       -0.13800   0.32870    0.00941   1.00
C4       -0.23250   0.15350    0.02713   1.00
C5       -0.27150   0.08080    0.03509   1.00
H2       -0.29880   0.07880    0.04651   1.00
H2       -0.30050   0.05110    0.02461   1.00
H2       -0.23990   0.06660    0.03921   1.00
C4       -0.13290   0.26090    0.02781   1.00
C5       -0.06090   0.30940    0.03665   1.00
H2       -0.02740   0.30480    0.02901   1.00
H2       -0.05150   0.35560    0.03591   1.00
H2       -0.05940   0.29760    0.05051   1.00
C6       -0.16850   0.19540    0.03494   1.00
C6       -0.13780   0.17080    0.05020   1.00
C4       -0.14960   0.17380    0.07067   1.00
C5       -0.18600   0.20930    0.07757   1.00
H2       -0.23390   0.17720    0.07851   1.00
H2       -0.16920   0.22920    0.09061   1.00
H2       -0.17840   0.24450    0.06801   1.00
C4       -0.09850   0.14360    0.04324   1.00
C5       -0.08470   0.13800    0.02080   1.00
H2       -0.04500   0.17950    0.01651   1.00
H2       -0.07700   0.10040    0.01891   1.00
H2       -0.12320   0.13100    0.01291   1.00
C3       -0.12280   0.14740    0.08450   1.00
H1       -0.12970   0.15030    0.09831   1.00
C3       -0.07390   0.11570    0.05847   1.00
H1       -0.04840   0.09600    0.05441   1.00
C2       -0.08630   0.11730    0.07845   1.00
C2       0.44087    0.86543    0.83968   1.00
C3       0.40687    0.89503    0.84657   1.00
H1       0.36287    0.87973    0.84184   1.00
C3       0.50437    0.88733    0.84713   1.00
H1       0.52867    0.86663    0.84274   1.00
C4       0.43417    0.94733    0.86046   1.00
C5       0.39517    0.98103    0.86842   1.00
H2       0.36787    0.95573    0.87984   1.00
H2       0.36617    0.98173    0.85794   1.00
H2       0.42677    0.02683    0.87254   1.00
C4       0.53377    0.93953    0.86114   1.00
C5       0.60577    0.96303    0.86998   1.00
H2       0.63927    0.00113    0.86234   1.00
H2       0.61517    0.92623    0.86924   1.00
H2       0.60727    0.97633    0.88384   1.00
C6       0.49817    0.96943    0.86827   1.00
C6       0.52887    0.02473    0.88353   1.00
C4       0.51707    0.00993    0.90400   1.00
C5       0.48067    0.93803    0.91090   1.00
H2       0.43277    0.92223    0.91184   1.00
H2       0.49747    0.93493    0.92394   1.00
H2       0.48827    0.91043    0.90134   1.00
C4       0.56817    0.09123    0.87657   1.00
C5       0.58197    0.11063    0.85413   1.00
H2       0.62167    0.10883    0.84984   1.00
H2       0.58967    0.15593    0.85224   1.00
H2       0.54347    0.07913    0.84624   1.00
C3       0.54387    0.06313    0.91783   1.00
H1       0.53697    0.05333    0.93164   1.00
C3       0.59277    0.14373    0.89180   1.00
H1       0.61827    0.18893    0.88774   1.00
C2       0.58037    0.12973    0.91178   1.00
C2       0.13457    0.57543    0.83968   1.00
C3       0.10497    0.51183    0.84657   1.00
H1       0.12027    0.48313    0.84184   1.00
C3       0.11267    0.61703    0.84713   1.00
H1       0.13337    0.66203    0.84274   1.00
C4       0.05267    0.48683    0.86046   1.00
C5       0.01897    0.41413    0.86842   1.00
H2       0.04427    0.41213    0.87984   1.00
H2       0.01827    0.38443    0.85794   1.00
H2       0.97317    0.39993    0.87254   1.00
C4       0.06047    0.59423    0.86114   1.00
C5       0.03697    0.64273    0.86998   1.00
H2       0.99887    0.63813    0.86234   1.00
H2       0.07377    0.68893    0.86924   1.00
H2       0.02367    0.63093    0.88384   1.00
C6       0.03057    0.52873    0.86827   1.00
C6       0.97527    0.50413    0.88353   1.00
C4       0.99007    0.50713    0.90400   1.00
C5       0.06197    0.54263    0.91090   1.00
H2       0.07777    0.51053    0.91184   1.00
H2       0.06507    0.56253    0.92394   1.00
H2       0.08957    0.57783    0.90134   1.00
C4       0.90877    0.47693    0.87657   1.00
C5       0.88937    0.47133    0.85413   1.00
H2       0.89117    0.51283    0.84984   1.00
H2       0.84407    0.43373    0.85224   1.00
H2       0.92087    0.46433    0.84624   1.00
C3       0.93687    0.48073    0.91783   1.00
H1       0.94667    0.48363    0.93164   1.00
C3       0.85627    0.44903    0.89180   1.00
H1       0.81107    0.42933    0.88774   1.00
C2       0.87027    0.45063    0.91178   1.00
C2       0.42457    0.55913    0.83968   1.00
C3       0.48817    0.59313    0.84657   1.00
H1       0.51687    0.63713    0.84184   1.00
C3       0.38297    0.49563    0.84713   1.00
H1       0.33797    0.47133    0.84274   1.00
C4       0.51317    0.56583    0.86046   1.00
C5       0.58587    0.60483    0.86842   1.00
H2       0.58787    0.63213    0.87984   1.00
H2       0.61557    0.63383    0.85794   1.00
H2       0.60007    0.57323    0.87254   1.00
C4       0.40577    0.46623    0.86114   1.00
C5       0.35727    0.39423    0.86998   1.00
H2       0.36187    0.36073    0.86234   1.00
H2       0.31107    0.38483    0.86924   1.00
H2       0.36907    0.39273    0.88384   1.00
C6       0.47127    0.50183    0.86827   1.00
C6       0.49587    0.47113    0.88353   1.00
C4       0.49287    0.48293    0.90400   1.00
C5       0.45737    0.51933    0.91090   1.00
H2       0.48947    0.56723    0.91184   1.00
H2       0.43747    0.50253    0.92394   1.00
H2       0.42217    0.51173    0.90134   1.00
C4       0.52307    0.43183    0.87657   1.00
C5       0.52867    0.41803    0.85413   1.00
H2       0.48717    0.37833    0.84984   1.00
H2       0.56627    0.41033    0.85224   1.00
H2       0.53567    0.45653    0.84624   1.00
C3       0.51927    0.45613    0.91783   1.00
H1       0.51637    0.46303    0.93164   1.00
C3       0.55097    0.40723    0.89180   1.00
H1       0.57067    0.38173    0.88774   1.00
C2       0.54937    0.41963    0.91178   1.00
C2       0.19877    0.10753    0.32698   1.00
C3       0.22837    0.07353    0.32009   1.00
H1       0.21307    0.02953    0.32482   1.00
C3       0.22067    0.17103    0.31953   1.00
H1       0.19997    0.19533    0.32392   1.00
C4       0.28067    0.10083    0.30620   1.00
C5       0.31437    0.06183    0.29824   1.00
H2       0.28907    0.03453    0.28682   1.00
H2       0.31507    0.03283    0.30872   1.00
H2       0.36017    0.09343    0.29412   1.00
C4       0.27287    0.20043    0.30552   1.00
C5       0.29637    0.27243    0.29668   1.00
H2       0.33447    0.30593    0.30432   1.00
H2       0.25957    0.28183    0.29742   1.00
H2       0.30967    0.27393    0.28282   1.00
C6       0.30277    0.16483    0.29839   1.00
C6       0.35807    0.19553    0.28313   1.00
C4       0.34327    0.18373    0.26266   1.00
C5       0.27137    0.14733    0.25576   1.00
H2       0.25557    0.09943    0.25482   1.00
H2       0.26827    0.16413    0.24272   1.00
H2       0.24377    0.15493    0.26532   1.00
C4       0.42457    0.23483    0.29009   1.00
C5       0.44397    0.24863    0.31253   1.00
H2       0.44217    0.28833    0.31682   1.00
H2       0.48927    0.25633    0.31442   1.00
H2       0.41247    0.21013    0.32042   1.00
C3       0.39647    0.21053    0.24883   1.00
H1       0.38667    0.20363    0.23502   1.00
C3       0.47707    0.25943    0.27486   1.00
H1       0.52227    0.28493    0.27892   1.00
C2       0.46307    0.24703    0.25488   1.00
C2       0.90877    0.80123    0.32698   1.00
C3       0.84517    0.77163    0.32009   1.00
H1       0.81647    0.78693    0.32482   1.00
C3       0.95037    0.77933    0.31953   1.00
H1       0.99537    0.80003    0.32392   1.00
C4       0.82017    0.71933    0.30620   1.00
C5       0.74747    0.68563    0.29824   1.00
H2       0.74547    0.71093    0.28682   1.00
H2       0.71777    0.68493    0.30872   1.00
H2       0.73327    0.63983    0.29412   1.00
C4       0.92757    0.72713    0.30552   1.00
C5       0.97607    0.70363    0.29668   1.00
H2       0.97147    0.66553    0.30432   1.00
H2       0.02227    0.74043    0.29742   1.00
H2       0.96427    0.69033    0.28282   1.00
C6       0.86207    0.69723    0.29839   1.00
C6       0.83747    0.64193    0.28313   1.00
C4       0.84047    0.65673    0.26266   1.00
C5       0.87597    0.72863    0.25576   1.00
H2       0.84387    0.74443    0.25482   1.00
H2       0.89587    0.73173    0.24272   1.00
H2       0.91117    0.75623    0.26532   1.00
C4       0.81027    0.57543    0.29009   1.00
C5       0.80467    0.55603    0.31253   1.00
H2       0.84617    0.55783    0.31682   1.00
H2       0.76707    0.51073    0.31442   1.00
H2       0.79767    0.58753    0.32042   1.00
C3       0.81407    0.60353    0.24883   1.00
H1       0.81697    0.61333    0.23502   1.00
C3       0.78237    0.52293    0.27486   1.00
H1       0.76267    0.47773    0.27892   1.00
C2       0.78397    0.53693    0.25488   1.00
C2       0.89247    0.09123    0.32698   1.00
C3       0.92647    0.15483    0.32009   1.00
H1       0.97047    0.18353    0.32482   1.00
C3       0.82897    0.04963    0.31953   1.00
H1       0.80467    0.00463    0.32392   1.00
C4       0.89917    0.17983    0.30620   1.00
C5       0.93817    0.25253    0.29824   1.00
H2       0.96547    0.25453    0.28682   1.00
H2       0.96717    0.28223    0.30872   1.00
H2       0.90657    0.26673    0.29412   1.00
C4       0.79957    0.07243    0.30552   1.00
C5       0.72757    0.02393    0.29668   1.00
H2       0.69407    0.02853    0.30432   1.00
H2       0.71817    0.97773    0.29742   1.00
H2       0.72607    0.03573    0.28282   1.00
C6       0.83517    0.13793    0.29839   1.00
C6       0.80447    0.16253    0.28313   1.00
C4       0.81627    0.15953    0.26266   1.00
C5       0.85267    0.12403    0.25576   1.00
H2       0.90057    0.15613    0.25482   1.00
H2       0.83587    0.10413    0.24272   1.00
H2       0.84507    0.08883    0.26532   1.00
C4       0.76517    0.18973    0.29009   1.00
C5       0.75137    0.19533    0.31253   1.00
H2       0.71167    0.15383    0.31682   1.00
H2       0.74367    0.23293    0.31442   1.00
H2       0.78987    0.20233    0.32042   1.00
C3       0.78947    0.18593    0.24883   1.00
H1       0.79637    0.18303    0.23502   1.00
C3       0.74057    0.21763    0.27486   1.00
H1       0.71507    0.23733    0.27892   1.00
C2       0.75297    0.21603    0.25488   1.00
C2       0.89247    0.80123    0.82698   1.00
C3       0.92647    0.77163    0.82009   1.00
H1       0.97047    0.78693    0.82482   1.00
C3       0.82897    0.77933    0.81953   1.00
H1       0.80467    0.80003    0.82392   1.00
C4       0.89917    0.71933    0.80620   1.00
C5       0.93817    0.68563    0.79824   1.00
H2       0.96547    0.71093    0.78682   1.00
H2       0.96717    0.68493    0.80872   1.00
H2       0.90657    0.63983    0.79412   1.00
C4       0.79957    0.72713    0.80552   1.00
C5       0.72757    0.70363    0.79668   1.00
H2       0.69407    0.66553    0.80432   1.00
H2       0.71817    0.74043    0.79742   1.00
H2       0.72607    0.69033    0.78282   1.00
C6       0.83517    0.69723    0.79839   1.00
C6       0.80447    0.64193    0.78313   1.00
C4       0.81627    0.65673    0.76266   1.00
C5       0.85267    0.72863    0.75576   1.00
H2       0.90057    0.74443    0.75482   1.00
H2       0.83587    0.73173    0.74272   1.00
H2       0.84507    0.75623    0.76532   1.00
C4       0.76517    0.57543    0.79009   1.00
C5       0.75137    0.55603    0.81253   1.00
H2       0.71167    0.55783    0.81682   1.00
H2       0.74367    0.51073    0.81442   1.00
H2       0.78987    0.58753    0.82042   1.00
C3       0.78947    0.60353    0.74883   1.00
H1       0.79637    0.61333    0.73502   1.00
C3       0.74057    0.52293    0.77486   1.00
H1       0.71507    0.47773    0.77892   1.00
C2       0.75297    0.53693    0.75488   1.00
C2       0.19877    0.09123    0.82698   1.00
C3       0.22837    0.15483    0.82009   1.00
H1       0.21307    0.18353    0.82482   1.00
C3       0.22067    0.04963    0.81953   1.00
H1       0.19997    0.00463    0.82392   1.00
C4       0.28067    0.17983    0.80620   1.00
C5       0.31437    0.25253    0.79824   1.00
H2       0.28907    0.25453    0.78682   1.00
H2       0.31507    0.28223    0.80872   1.00
H2       0.36017    0.26673    0.79412   1.00
C4       0.27287    0.07243    0.80552   1.00
C5       0.29637    0.02393    0.79668   1.00
H2       0.33447    0.02853    0.80432   1.00
H2       0.25957    0.97773    0.79742   1.00
H2       0.30967    0.03573    0.78282   1.00
C6       0.30277    0.13793    0.79839   1.00
C6       0.35807    0.16253    0.78313   1.00
C4       0.34327    0.15953    0.76266   1.00
C5       0.27137    0.12403    0.75576   1.00
H2       0.25557    0.15613    0.75482   1.00
H2       0.26827    0.10413    0.74272   1.00
H2       0.24377    0.08883    0.76532   1.00
C4       0.42457    0.18973    0.79009   1.00
C5       0.44397    0.19533    0.81253   1.00
H2       0.44217    0.15383    0.81682   1.00
H2       0.48927    0.23293    0.81442   1.00
H2       0.41247    0.20233    0.82042   1.00
C3       0.39647    0.18593    0.74883   1.00
H1       0.38667    0.18303    0.73502   1.00
C3       0.47707    0.21763    0.77486   1.00
H1       0.52227    0.23733    0.77892   1.00
C2       0.46307    0.21603    0.75488   1.00
C2       0.90877    0.10753    0.82698   1.00
C3       0.84517    0.07353    0.82009   1.00
H1       0.81647    0.02953    0.82482   1.00
C3       0.95037    0.17103    0.81953   1.00
H1       0.99537    0.19533    0.82392   1.00
C4       0.82017    0.10083    0.80620   1.00
C5       0.74747    0.06183    0.79824   1.00
H2       0.74547    0.03453    0.78682   1.00
H2       0.71777    0.03283    0.80872   1.00
H2       0.73327    0.09343    0.79412   1.00
C4       0.92757    0.20043    0.80552   1.00
C5       0.97607    0.27243    0.79668   1.00
H2       0.97147    0.30593    0.80432   1.00
H2       0.02227    0.28183    0.79742   1.00
H2       0.96427    0.27393    0.78282   1.00
C6       0.86207    0.16483    0.79839   1.00
C6       0.83747    0.19553    0.78313   1.00
C4       0.84047    0.18373    0.76266   1.00
C5       0.87597    0.14733    0.75576   1.00
H2       0.84387    0.09943    0.75482   1.00
H2       0.89587    0.16413    0.74272   1.00
H2       0.91117    0.15493    0.76532   1.00
C4       0.81027    0.23483    0.79009   1.00
C5       0.80467    0.24863    0.81253   1.00
H2       0.84617    0.28833    0.81682   1.00
H2       0.76707    0.25633    0.81442   1.00
H2       0.79767    0.21013    0.82042   1.00
C3       0.81407    0.21053    0.74883   1.00
H1       0.81697    0.20363    0.73502   1.00
C3       0.78237    0.25943    0.77486   1.00
H1       0.76267    0.28493    0.77892   1.00
C2       0.78397    0.24703    0.75488   1.00
C2       0.13457    0.55913    0.33968   1.00
C3       0.10497    0.59313    0.34657   1.00
H1       0.12027    0.63713    0.34184   1.00
C3       0.11267    0.49563    0.34713   1.00
H1       0.13337    0.47133    0.34274   1.00
C4       0.05267    0.56583    0.36046   1.00
C5       0.01897    0.60483    0.36842   1.00
H2       0.04427    0.63213    0.37984   1.00
H2       0.01827    0.63383    0.35794   1.00
H2       0.97317    0.57323    0.37254   1.00
C4       0.06047    0.46623    0.36114   1.00
C5       0.03697    0.39423    0.36998   1.00
H2       0.99887    0.36073    0.36234   1.00
H2       0.07377    0.38483    0.36924   1.00
H2       0.02367    0.39273    0.38384   1.00
C6       0.03057    0.50183    0.36827   1.00
C6       0.97527    0.47113    0.38353   1.00
C4       0.99007    0.48293    0.40400   1.00
C5       0.06197    0.51933    0.41090   1.00
H2       0.07777    0.56723    0.41184   1.00
H2       0.06507    0.50253    0.42394   1.00
H2       0.08957    0.51173    0.40134   1.00
C4       0.90877    0.43183    0.37657   1.00
C5       0.88937    0.41803    0.35413   1.00
H2       0.89117    0.37833    0.34984   1.00
H2       0.84407    0.41033    0.35224   1.00
H2       0.92087    0.45653    0.34624   1.00
C3       0.93687    0.45613    0.41783   1.00
H1       0.94667    0.46303    0.43164   1.00
C3       0.85627    0.40723    0.39180   1.00
H1       0.81107    0.38173    0.38774   1.00
C2       0.87027    0.41963    0.41178   1.00
C2       0.42457    0.86543    0.33968   1.00
C3       0.48817    0.89503    0.34657   1.00
H1       0.51687    0.87973    0.34184   1.00
C3       0.38297    0.88733    0.34713   1.00
H1       0.33797    0.86663    0.34274   1.00
C4       0.51317    0.94733    0.36046   1.00
C5       0.58587    0.98103    0.36842   1.00
H2       0.58787    0.95573    0.37984   1.00
H2       0.61557    0.98173    0.35794   1.00
H2       0.60007    0.02683    0.37254   1.00
C4       0.40577    0.93953    0.36114   1.00
C5       0.35727    0.96303    0.36998   1.00
H2       0.36187    0.00113    0.36234   1.00
H2       0.31107    0.92623    0.36924   1.00
H2       0.36907    0.97633    0.38384   1.00
C6       0.47127    0.96943    0.36827   1.00
C6       0.49587    0.02473    0.38353   1.00
C4       0.49287    0.00993    0.40400   1.00
C5       0.45737    0.93803    0.41090   1.00
H2       0.48947    0.92223    0.41184   1.00
H2       0.43747    0.93493    0.42394   1.00
H2       0.42217    0.91043    0.40134   1.00
C4       0.52307    0.09123    0.37657   1.00
C5       0.52867    0.11063    0.35413   1.00
H2       0.48717    0.10883    0.34984   1.00
H2       0.56627    0.15593    0.35224   1.00
H2       0.53567    0.07913    0.34624   1.00
C3       0.51927    0.06313    0.41783   1.00
H1       0.51637    0.05333    0.43164   1.00
C3       0.55097    0.14373    0.39180   1.00
H1       0.57067    0.18893    0.38774   1.00
C2       0.54937    0.12973    0.41178   1.00
C2       0.44087    0.57543    0.33968   1.00
C3       0.40687    0.51183    0.34657   1.00
H1       0.36287    0.48313    0.34184   1.00
C3       0.50437    0.61703    0.34713   1.00
H1       0.52867    0.66203    0.34274   1.00
C4       0.43417    0.48683    0.36046   1.00
C5       0.39517    0.41413    0.36842   1.00
H2       0.36787    0.41213    0.37984   1.00
H2       0.36617    0.38443    0.35794   1.00
H2       0.42677    0.39993    0.37254   1.00
C4       0.53377    0.59423    0.36114   1.00
C5       0.60577    0.64273    0.36998   1.00
H2       0.63927    0.63813    0.36234   1.00
H2       0.61517    0.68893    0.36924   1.00
H2       0.60727    0.63093    0.38384   1.00
C6       0.49817    0.52873    0.36827   1.00
C6       0.52887    0.50413    0.38353   1.00
C4       0.51707    0.50713    0.40400   1.00
C5       0.48067    0.54263    0.41090   1.00
H2       0.43277    0.51053    0.41184   1.00
H2       0.49747    0.56253    0.42394   1.00
H2       0.48827    0.57783    0.40134   1.00
C4       0.56817    0.47693    0.37657   1.00
C5       0.58197    0.47133    0.35413   1.00
H2       0.62167    0.51283    0.34984   1.00
H2       0.58967    0.43373    0.35224   1.00
H2       0.54347    0.46433    0.34624   1.00
C3       0.54387    0.48073    0.41783   1.00
H1       0.53697    0.48363    0.43164   1.00
C3       0.59277    0.44903    0.39180   1.00
H1       0.61827    0.42933    0.38774   1.00
C2       0.58037    0.45063    0.41178   1.00
C2       0.10753    0.19877    0.17302   1.00
C3       0.07353    0.22837    0.17991   1.00
H1       0.02953    0.21307    0.17518   1.00
C3       0.17103    0.22067    0.18047   1.00
H1       0.19533    0.19997    0.17608   1.00
C4       0.10083    0.28067    0.19380   1.00
C5       0.06183    0.31437    0.20176   1.00
H2       0.03453    0.28907    0.21318   1.00
H2       0.03283    0.31507    0.19128   1.00
H2       0.09343    0.36017    0.20588   1.00
C4       0.20043    0.27287    0.19448   1.00
C5       0.27243    0.29637    0.20332   1.00
H2       0.30593    0.33447    0.19568   1.00
H2       0.28183    0.25957    0.20258   1.00
H2       0.27393    0.30967    0.21718   1.00
C6       0.16483    0.30277    0.20161   1.00
C6       0.19553    0.35807    0.21687   1.00
C4       0.18373    0.34327    0.23734   1.00
C5       0.14733    0.27137    0.24424   1.00
H2       0.09943    0.25557    0.24518   1.00
H2       0.16413    0.26827    0.25728   1.00
H2       0.15493    0.24377    0.23468   1.00
C4       0.23483    0.42457    0.20991   1.00
C5       0.24863    0.44397    0.18747   1.00
H2       0.28833    0.44217    0.18318   1.00
H2       0.25633    0.48927    0.18558   1.00
H2       0.21013    0.41247    0.17958   1.00
C3       0.21053    0.39647    0.25117   1.00
H1       0.20363    0.38667    0.26498   1.00
C3       0.25943    0.47707    0.22514   1.00
H1       0.28493    0.52227    0.22108   1.00
C2       0.24703    0.46307    0.24512   1.00
C2       0.80123    0.90877    0.17302   1.00
C3       0.77163    0.84517    0.17991   1.00
H1       0.78693    0.81647    0.17518   1.00
C3       0.77933    0.95037    0.18047   1.00
H1       0.80003    0.99537    0.17608   1.00
C4       0.71933    0.82017    0.19380   1.00
C5       0.68563    0.74747    0.20176   1.00
H2       0.71093    0.74547    0.21318   1.00
H2       0.68493    0.71777    0.19128   1.00
H2       0.63983    0.73327    0.20588   1.00
C4       0.72713    0.92757    0.19448   1.00
C5       0.70363    0.97607    0.20332   1.00
H2       0.66553    0.97147    0.19568   1.00
H2       0.74043    0.02227    0.20258   1.00
H2       0.69033    0.96427    0.21718   1.00
C6       0.69723    0.86207    0.20161   1.00
C6       0.64193    0.83747    0.21687   1.00
C4       0.65673    0.84047    0.23734   1.00
C5       0.72863    0.87597    0.24424   1.00
H2       0.74443    0.84387    0.24518   1.00
H2       0.73173    0.89587    0.25728   1.00
H2       0.75623    0.91117    0.23468   1.00
C4       0.57543    0.81027    0.20991   1.00
C5       0.55603    0.80467    0.18747   1.00
H2       0.55783    0.84617    0.18318   1.00
H2       0.51073    0.76707    0.18558   1.00
H2       0.58753    0.79767    0.17958   1.00
C3       0.60353    0.81407    0.25117   1.00
H1       0.61333    0.81697    0.26498   1.00
C3       0.52293    0.78237    0.22514   1.00
H1       0.47773    0.76267    0.22108   1.00
C2       0.53693    0.78397    0.24512   1.00
C2       0.09123    0.89247    0.17302   1.00
C3       0.15483    0.92647    0.17991   1.00
H1       0.18353    0.97047    0.17518   1.00
C3       0.04963    0.82897    0.18047   1.00
H1       0.00463    0.80467    0.17608   1.00
C4       0.17983    0.89917    0.19380   1.00
C5       0.25253    0.93817    0.20176   1.00
H2       0.25453    0.96547    0.21318   1.00
H2       0.28223    0.96717    0.19128   1.00
H2       0.26673    0.90657    0.20588   1.00
C4       0.07243    0.79957    0.19448   1.00
C5       0.02393    0.72757    0.20332   1.00
H2       0.02853    0.69407    0.19568   1.00
H2       0.97773    0.71817    0.20258   1.00
H2       0.03573    0.72607    0.21718   1.00
C6       0.13793    0.83517    0.20161   1.00
C6       0.16253    0.80447    0.21687   1.00
C4       0.15953    0.81627    0.23734   1.00
C5       0.12403    0.85267    0.24424   1.00
H2       0.15613    0.90057    0.24518   1.00
H2       0.10413    0.83587    0.25728   1.00
H2       0.08883    0.84507    0.23468   1.00
C4       0.18973    0.76517    0.20991   1.00
C5       0.19533    0.75137    0.18747   1.00
H2       0.15383    0.71167    0.18318   1.00
H2       0.23293    0.74367    0.18558   1.00
H2       0.20233    0.78987    0.17958   1.00
C3       0.18593    0.78947    0.25117   1.00
H1       0.18303    0.79637    0.26498   1.00
C3       0.21763    0.74057    0.22514   1.00
H1       0.23733    0.71507    0.22108   1.00
C2       0.21603    0.75297    0.24512   1.00
C2       0.86543    0.44087    0.66032   1.00
C3       0.89503    0.40687    0.65343   1.00
H1       0.87973    0.36287    0.65816   1.00
C3       0.88733    0.50437    0.65287   1.00
H1       0.86663    0.52867    0.65726   1.00
C4       0.94733    0.43417    0.63954   1.00
C5       0.98103    0.39517    0.63158   1.00
H2       0.95573    0.36787    0.62016   1.00
H2       0.98173    0.36617    0.64206   1.00
H2       0.02683    0.42677    0.62746   1.00
C4       0.93953    0.53377    0.63886   1.00
C5       0.96303    0.60577    0.63002   1.00
H2       0.00113    0.63927    0.63766   1.00
H2       0.92623    0.61517    0.63076   1.00
H2       0.97633    0.60727    0.61616   1.00
C6       0.96943    0.49817    0.63173   1.00
C6       0.02473    0.52887    0.61647   1.00
C4       0.00993    0.51707    0.59600   1.00
C5       0.93803    0.48067    0.58910   1.00
H2       0.92223    0.43277    0.58816   1.00
H2       0.93493    0.49747    0.57606   1.00
H2       0.91043    0.48827    0.59866   1.00
C4       0.09123    0.56817    0.62343   1.00
C5       0.11063    0.58197    0.64587   1.00
H2       0.10883    0.62167    0.65016   1.00
H2       0.15593    0.58967    0.64776   1.00
H2       0.07913    0.54347    0.65376   1.00
C3       0.06313    0.54387    0.58217   1.00
H1       0.05333    0.53697    0.56836   1.00
C3       0.14373    0.59277    0.60820   1.00
H1       0.18893    0.61827    0.61226   1.00
C2       0.12973    0.58037    0.58822   1.00
C2       0.57543    0.13457    0.66032   1.00
C3       0.51183    0.10497    0.65343   1.00
H1       0.48313    0.12027    0.65816   1.00
C3       0.61703    0.11267    0.65287   1.00
H1       0.66203    0.13337    0.65726   1.00
C4       0.48683    0.05267    0.63954   1.00
C5       0.41413    0.01897    0.63158   1.00
H2       0.41213    0.04427    0.62016   1.00
H2       0.38443    0.01827    0.64206   1.00
H2       0.39993    0.97317    0.62746   1.00
C4       0.59423    0.06047    0.63886   1.00
C5       0.64273    0.03697    0.63002   1.00
H2       0.63813    0.99887    0.63766   1.00
H2       0.68893    0.07377    0.63076   1.00
H2       0.63093    0.02367    0.61616   1.00
C6       0.52873    0.03057    0.63173   1.00
C6       0.50413    0.97527    0.61647   1.00
C4       0.50713    0.99007    0.59600   1.00
C5       0.54263    0.06197    0.58910   1.00
H2       0.51053    0.07777    0.58816   1.00
H2       0.56253    0.06507    0.57606   1.00
H2       0.57783    0.08957    0.59866   1.00
C4       0.47693    0.90877    0.62343   1.00
C5       0.47133    0.88937    0.64587   1.00
H2       0.51283    0.89117    0.65016   1.00
H2       0.43373    0.84407    0.64776   1.00
H2       0.46433    0.92087    0.65376   1.00
C3       0.48073    0.93687    0.58217   1.00
H1       0.48363    0.94667    0.56836   1.00
C3       0.44903    0.85627    0.60820   1.00
H1       0.42933    0.81107    0.61226   1.00
C2       0.45063    0.87027    0.58822   1.00
C2       0.55913    0.42457    0.66032   1.00
C3       0.59313    0.48817    0.65343   1.00
H1       0.63713    0.51687    0.65816   1.00
C3       0.49563    0.38297    0.65287   1.00
H1       0.47133    0.33797    0.65726   1.00
C4       0.56583    0.51317    0.63954   1.00
C5       0.60483    0.58587    0.63158   1.00
H2       0.63213    0.58787    0.62016   1.00
H2       0.63383    0.61557    0.64206   1.00
H2       0.57323    0.60007    0.62746   1.00
C4       0.46623    0.40577    0.63886   1.00
C5       0.39423    0.35727    0.63002   1.00
H2       0.36073    0.36187    0.63766   1.00
H2       0.38483    0.31107    0.63076   1.00
H2       0.39273    0.36907    0.61616   1.00
C6       0.50183    0.47127    0.63173   1.00
C6       0.47113    0.49587    0.61647   1.00
C4       0.48293    0.49287    0.59600   1.00
C5       0.51933    0.45737    0.58910   1.00
H2       0.56723    0.48947    0.58816   1.00
H2       0.50253    0.43747    0.57606   1.00
H2       0.51173    0.42217    0.59866   1.00
C4       0.43183    0.52307    0.62343   1.00
C5       0.41803    0.52867    0.64587   1.00
H2       0.37833    0.48717    0.65016   1.00
H2       0.41033    0.56627    0.64776   1.00
H2       0.45653    0.53567    0.65376   1.00
C3       0.45613    0.51927    0.58217   1.00
H1       0.46303    0.51637    0.56836   1.00
C3       0.40723    0.55097    0.60820   1.00
H1       0.38173    0.57067    0.61226   1.00
C2       0.41963    0.54937    0.58822   1.00
C2       0.55913    0.13457    0.16032   1.00
C3       0.59313    0.10497    0.15343   1.00
H1       0.63713    0.12027    0.15816   1.00
C3       0.49563    0.11267    0.15287   1.00
H1       0.47133    0.13337    0.15726   1.00
C4       0.56583    0.05267    0.13954   1.00
C5       0.60483    0.01897    0.13158   1.00
H2       0.63213    0.04427    0.12016   1.00
H2       0.63383    0.01827    0.14206   1.00
H2       0.57323    0.97317    0.12746   1.00
C4       0.46623    0.06047    0.13886   1.00
C5       0.39423    0.03697    0.13002   1.00
H2       0.36073    0.99887    0.13766   1.00
H2       0.38483    0.07377    0.13076   1.00
H2       0.39273    0.02367    0.11616   1.00
C6       0.50183    0.03057    0.13173   1.00
C6       0.47113    0.97527    0.11647   1.00
C4       0.48293    0.99007    0.09600   1.00
C5       0.51933    0.06197    0.08910   1.00
H2       0.56723    0.07777    0.08816   1.00
H2       0.50253    0.06507    0.07606   1.00
H2       0.51173    0.08957    0.09866   1.00
C4       0.43183    0.90877    0.12343   1.00
C5       0.41803    0.88937    0.14587   1.00
H2       0.37833    0.89117    0.15016   1.00
H2       0.41033    0.84407    0.14776   1.00
H2       0.45653    0.92087    0.15376   1.00
C3       0.45613    0.93687    0.08217   1.00
H1       0.46303    0.94667    0.06836   1.00
C3       0.40723    0.85627    0.10820   1.00
H1       0.38173    0.81107    0.11226   1.00
C2       0.41963    0.87027    0.08822   1.00
C2       0.86543    0.42457    0.16032   1.00
C3       0.89503    0.48817    0.15343   1.00
H1       0.87973    0.51687    0.15816   1.00
C3       0.88733    0.38297    0.15287   1.00
H1       0.86663    0.33797    0.15726   1.00
C4       0.94733    0.51317    0.13954   1.00
C5       0.98103    0.58587    0.13158   1.00
H2       0.95573    0.58787    0.12016   1.00
H2       0.98173    0.61557    0.14206   1.00
H2       0.02683    0.60007    0.12746   1.00
C4       0.93953    0.40577    0.13886   1.00
C5       0.96303    0.35727    0.13002   1.00
H2       0.00113    0.36187    0.13766   1.00
H2       0.92623    0.31107    0.13076   1.00
H2       0.97633    0.36907    0.11616   1.00
C6       0.96943    0.47127    0.13173   1.00
C6       0.02473    0.49587    0.11647   1.00
C4       0.00993    0.49287    0.09600   1.00
C5       0.93803    0.45737    0.08910   1.00
H2       0.92223    0.48947    0.08816   1.00
H2       0.93493    0.43747    0.07606   1.00
H2       0.91043    0.42217    0.09866   1.00
C4       0.09123    0.52307    0.12343   1.00
C5       0.11063    0.52867    0.14587   1.00
H2       0.10883    0.48717    0.15016   1.00
H2       0.15593    0.56627    0.14776   1.00
H2       0.07913    0.53567    0.15376   1.00
C3       0.06313    0.51927    0.08217   1.00
H1       0.05333    0.51637    0.06836   1.00
C3       0.14373    0.55097    0.10820   1.00
H1       0.18893    0.57067    0.11226   1.00
C2       0.12973    0.54937    0.08822   1.00
C2       0.57543    0.44087    0.16032   1.00
C3       0.51183    0.40687    0.15343   1.00
H1       0.48313    0.36287    0.15816   1.00
C3       0.61703    0.50437    0.15287   1.00
H1       0.66203    0.52867    0.15726   1.00
C4       0.48683    0.43417    0.13954   1.00
C5       0.41413    0.39517    0.13158   1.00
H2       0.41213    0.36787    0.12016   1.00
H2       0.38443    0.36617    0.14206   1.00
H2       0.39993    0.42677    0.12746   1.00
C4       0.59423    0.53377    0.13886   1.00
C5       0.64273    0.60577    0.13002   1.00
H2       0.63813    0.63927    0.13766   1.00
H2       0.68893    0.61517    0.13076   1.00
H2       0.63093    0.60727    0.11616   1.00
C6       0.52873    0.49817    0.13173   1.00
C6       0.50413    0.52887    0.11647   1.00
C4       0.50713    0.51707    0.09600   1.00
C5       0.54263    0.48067    0.08910   1.00
H2       0.51053    0.43277    0.08816   1.00
H2       0.56253    0.49747    0.07606   1.00
H2       0.57783    0.48827    0.09866   1.00
C4       0.47693    0.56817    0.12343   1.00
C5       0.47133    0.58197    0.14587   1.00
H2       0.51283    0.62167    0.15016   1.00
H2       0.43373    0.58967    0.14776   1.00
H2       0.46433    0.54347    0.15376   1.00
C3       0.48073    0.54387    0.08217   1.00
H1       0.48363    0.53697    0.06836   1.00
C3       0.44903    0.59277    0.10820   1.00
H1       0.42933    0.61827    0.11226   1.00
C2       0.45063    0.58037    0.08822   1.00
C2       0.80123    0.89247    0.67302   1.00
C3       0.77163    0.92647    0.67991   1.00
H1       0.78693    0.97047    0.67518   1.00
C3       0.77933    0.82897    0.68047   1.00
H1       0.80003    0.80467    0.67608   1.00
C4       0.71933    0.89917    0.69380   1.00
C5       0.68563    0.93817    0.70176   1.00
H2       0.71093    0.96547    0.71318   1.00
H2       0.68493    0.96717    0.69128   1.00
H2       0.63983    0.90657    0.70588   1.00
C4       0.72713    0.79957    0.69448   1.00
C5       0.70363    0.72757    0.70332   1.00
H2       0.66553    0.69407    0.69568   1.00
H2       0.74043    0.71817    0.70258   1.00
H2       0.69033    0.72607    0.71718   1.00
C6       0.69723    0.83517    0.70161   1.00
C6       0.64193    0.80447    0.71687   1.00
C4       0.65673    0.81627    0.73734   1.00
C5       0.72863    0.85267    0.74424   1.00
H2       0.74443    0.90057    0.74518   1.00
H2       0.73173    0.83587    0.75728   1.00
H2       0.75623    0.84507    0.73468   1.00
C4       0.57543    0.76517    0.70991   1.00
C5       0.55603    0.75137    0.68747   1.00
H2       0.55783    0.71167    0.68318   1.00
H2       0.51073    0.74367    0.68558   1.00
H2       0.58753    0.78987    0.67958   1.00
C3       0.60353    0.78947    0.75117   1.00
H1       0.61333    0.79637    0.76498   1.00
C3       0.52293    0.74057    0.72514   1.00
H1       0.47773    0.71507    0.72108   1.00
C2       0.53693    0.75297    0.74512   1.00
C2       0.09123    0.19877    0.67302   1.00
C3       0.15483    0.22837    0.67991   1.00
H1       0.18353    0.21307    0.67518   1.00
C3       0.04963    0.22067    0.68047   1.00
H1       0.00463    0.19997    0.67608   1.00
C4       0.17983    0.28067    0.69380   1.00
C5       0.25253    0.31437    0.70176   1.00
H2       0.25453    0.28907    0.71318   1.00
H2       0.28223    0.31507    0.69128   1.00
H2       0.26673    0.36017    0.70588   1.00
C4       0.07243    0.27287    0.69448   1.00
C5       0.02393    0.29637    0.70332   1.00
H2       0.02853    0.33447    0.69568   1.00
H2       0.97773    0.25957    0.70258   1.00
H2       0.03573    0.30967    0.71718   1.00
C6       0.13793    0.30277    0.70161   1.00
C6       0.16253    0.35807    0.71687   1.00
C4       0.15953    0.34327    0.73734   1.00
C5       0.12403    0.27137    0.74424   1.00
H2       0.15613    0.25557    0.74518   1.00
H2       0.10413    0.26827    0.75728   1.00
H2       0.08883    0.24377    0.73468   1.00
C4       0.18973    0.42457    0.70991   1.00
C5       0.19533    0.44397    0.68747   1.00
H2       0.15383    0.44217    0.68318   1.00
H2       0.23293    0.48927    0.68558   1.00
H2       0.20233    0.41247    0.67958   1.00
C3       0.18593    0.39647    0.75117   1.00
H1       0.18303    0.38667    0.76498   1.00
C3       0.21763    0.47707    0.72514   1.00
H1       0.23733    0.52227    0.72108   1.00
C2       0.21603    0.46307    0.74512   1.00
C2       0.10753    0.90877    0.67302   1.00
C3       0.07353    0.84517    0.67991   1.00
H1       0.02953    0.81647    0.67518   1.00
C3       0.17103    0.95037    0.68047   1.00
H1       0.19533    0.99537    0.67608   1.00
C4       0.10083    0.82017    0.69380   1.00
C5       0.06183    0.74747    0.70176   1.00
H2       0.03453    0.74547    0.71318   1.00
H2       0.03283    0.71777    0.69128   1.00
H2       0.09343    0.73327    0.70588   1.00
C4       0.20043    0.92757    0.69448   1.00
C5       0.27243    0.97607    0.70332   1.00
H2       0.30593    0.97147    0.69568   1.00
H2       0.28183    0.02227    0.70258   1.00
H2       0.27393    0.96427    0.71718   1.00
C6       0.16483    0.86207    0.70161   1.00
C6       0.19553    0.83747    0.71687   1.00
C4       0.18373    0.84047    0.73734   1.00
C5       0.14733    0.87597    0.74424   1.00
H2       0.09943    0.84387    0.74518   1.00
H2       0.16413    0.89587    0.75728   1.00
H2       0.15493    0.91117    0.73468   1.00
C4       0.23483    0.81027    0.70991   1.00
C5       0.24863    0.80467    0.68747   1.00
H2       0.28833    0.84617    0.68318   1.00
H2       0.25633    0.76707    0.68558   1.00
H2       0.21013    0.79767    0.67958   1.00
C3       0.21053    0.81407    0.75117   1.00
H1       0.20363    0.81697    0.76498   1.00
C3       0.25943    0.78237    0.72514   1.00
H1       0.28493    0.76267    0.72108   1.00
C2       0.24703    0.78397    0.74512   1.00
