data_IRMOF10_interpen_symm_ligand2lp_label_f.

_audit_creation_method             'generated by an auxiliary program of Tobunporous'

_symmetry_space_group_name_H-M     'P 1'
_symmetry_Int_Tables_number        1
_symmetry_cell_setting             triclinic

_cell_length_a                    22.6523
_cell_length_b                    22.6523
_cell_length_c                    65.9502
_cell_angle_alpha                 90.0000
_cell_angle_beta                  90.0000
_cell_angle_gamma                 120.0000

loop_
_atom_site_label
_atom_site_fract_x
_atom_site_fract_y
_atom_site_fract_z
_atom_site_occupancy
O1       0.00000    -0.00000   0.62500   1.00
Zn      0.00000    -0.00000   0.59589   1.00
Zn      0.94848    1.04288    0.63392   1.00
Zn      0.09439    0.05152    0.63392   1.00
Zn      -0.04288   0.90561    0.63392   1.00
O2       0.93860    0.02610    0.58587   1.00
O2       0.08750    0.06140    0.58587   1.00
O2       -0.02610   0.91250    0.58587   1.00
O2       0.91305    0.07161    0.61181   1.00
O2       0.00462    0.12022    0.65110   1.00
O2       0.87413    0.98074    0.65071   1.00
O2       0.15856    0.08695    0.61181   1.00
O2       0.10660    0.12587    0.65071   1.00
O2       0.11559    0.99538    0.65110   1.00
O2       -0.07161   0.84144    0.61181   1.00
O2       0.87978    0.88441    0.65110   1.00
O2       0.01926    0.89340    0.65071   1.00
C1       0.91390    0.06020    0.59358   1.00
C1       0.14630    0.08610    0.59358   1.00
C1       -0.06020   0.85370    0.59358   1.00
C1       0.06663    0.14397    0.65673   1.00
C1       0.85603    0.92267    0.65673   1.00
C1       0.07733    0.93337    0.65673   1.00
O1       -0.00000   0.00000    0.87500   1.00
Zn      -0.00000   0.00000    0.90411   1.00
Zn      1.04288    0.94848    0.86608   1.00
Zn      0.05152    0.09439    0.86608   1.00
Zn      0.90561    -0.04288   0.86608   1.00
O2       0.02610    0.93860    0.91413   1.00
O2       0.06140    0.08750    0.91413   1.00
O2       0.91250    -0.02610   0.91413   1.00
O2       0.07161    0.91305    0.88819   1.00
O2       0.12022    0.00462    0.84890   1.00
O2       0.98074    0.87413    0.84929   1.00
O2       0.08695    0.15856    0.88819   1.00
O2       0.12587    0.10660    0.84929   1.00
O2       0.99538    0.11559    0.84890   1.00
O2       0.84144    -0.07161   0.88819   1.00
O2       0.88441    0.87978    0.84890   1.00
O2       0.89340    0.01926    0.84929   1.00
C1       0.06020    0.91390    0.90642   1.00
C1       0.08610    0.14630    0.90642   1.00
C1       0.85370    -0.06020   0.90642   1.00
C1       0.14397    0.06663    0.84327   1.00
C1       0.92267    0.85603    0.84327   1.00
C1       0.93337    0.07733    0.84327   1.00
O1       0.00000    0.00000    0.37500   1.00
Zn      0.00000    0.00000    0.40411   1.00
Zn      0.05152    -0.04288   0.36608   1.00
Zn      0.90561    0.94848    0.36608   1.00
Zn      1.04288    0.09439    0.36608   1.00
O2       0.06140    -0.02610   0.41413   1.00
O2       0.91250    0.93860    0.41413   1.00
O2       0.02610    0.08750    0.41413   1.00
O2       0.08695    -0.07161   0.38819   1.00
O2       0.99538    0.87978    0.34890   1.00
O2       0.12587    0.01926    0.34929   1.00
O2       0.84144    0.91305    0.38819   1.00
O2       0.89340    0.87413    0.34929   1.00
O2       0.88441    0.00462    0.34890   1.00
O2       0.07161    0.15856    0.38819   1.00
O2       0.12022    0.11559    0.34890   1.00
O2       0.98074    0.10660    0.34929   1.00
C1       0.08610    -0.06020   0.40642   1.00
C1       0.85370    0.91390    0.40642   1.00
C1       0.06020    0.14630    0.40642   1.00
C1       0.93337    0.85603    0.34327   1.00
C1       0.14397    0.07733    0.34327   1.00
C1       0.92267    0.06663    0.34327   1.00
O1       0.00000    0.00000    0.12500   1.00
Zn      0.00000    0.00000    0.09589   1.00
Zn      -0.04288   0.05152    0.13392   1.00
Zn      0.94848    0.90561    0.13392   1.00
Zn      0.09439    1.04288    0.13392   1.00
O2       -0.02610   0.06140    0.08587   1.00
O2       0.93860    0.91250    0.08587   1.00
O2       0.08750    0.02610    0.08587   1.00
O2       -0.07161   0.08695    0.11181   1.00
O2       0.87978    0.99538    0.15110   1.00
O2       0.01926    0.12587    0.15071   1.00
O2       0.91305    0.84144    0.11181   1.00
O2       0.87413    0.89340    0.15071   1.00
O2       0.00462    0.88441    0.15110   1.00
O2       0.15856    0.07161    0.11181   1.00
O2       0.11559    0.12022    0.15110   1.00
O2       0.10660    0.98074    0.15071   1.00
C1       -0.06020   0.08610    0.09358   1.00
C1       0.91390    0.85370    0.09358   1.00
C1       0.14630    0.06020    0.09358   1.00
C1       0.85603    0.93337    0.15673   1.00
C1       0.07733    0.14397    0.15673   1.00
C1       0.06663    0.92267    0.15673   1.00
O1       0.66667    0.33333    0.95833   1.00
Zn      0.66667    0.33333    0.92922   1.00
Zn      0.61515    0.37621    0.96725   1.00
Zn      0.76106    0.38485    0.96725   1.00
Zn      -0.37621   0.23894    0.96725   1.00
O2       0.60527    0.35943    0.91920   1.00
O2       0.75417    0.39473    0.91920   1.00
O2       0.64057    0.24583    0.91920   1.00
O2       0.57972    0.40494    0.94514   1.00
O2       0.67129    0.45355    0.98443   1.00
O2       0.54080    0.31407    0.98404   1.00
O2       0.82523    0.42028    0.94514   1.00
O2       0.77327    0.45920    0.98404   1.00
O2       -0.21774   0.32871    0.98443   1.00
O2       0.59506    0.17477    0.94514   1.00
O2       0.54645    0.21774    0.98443   1.00
O2       -0.31407   0.22673    0.98404   1.00
C1       0.58057    0.39353    0.92691   1.00
C1       0.81297    0.41943    0.92691   1.00
C1       0.60647    0.18703    0.92691   1.00
C1       0.73330    0.47730    0.99006   1.00
C1       0.52270    0.25600    0.99006   1.00
C1       -0.25600   0.26670    0.99006   1.00
O1       0.66667    0.33333    0.20833   1.00
Zn      0.66667    0.33333    0.23744   1.00
Zn      0.70954    0.28182    0.19942   1.00
Zn      0.71818    0.42773    0.19942   1.00
Zn      0.57227    0.29046    0.19942   1.00
O2       0.69277    0.27193    0.24746   1.00
O2       0.72807    0.42083    0.24746   1.00
O2       0.57917    0.30723    0.24746   1.00
O2       0.73828    0.24638    0.22152   1.00
O2       0.78688    0.33796    0.18224   1.00
O2       0.64740    0.20747    0.18263   1.00
O2       0.75362    0.49189    0.22152   1.00
O2       0.79253    0.43994    0.18263   1.00
O2       0.66204    0.44893    0.18224   1.00
O2       0.50811    0.26172    0.22152   1.00
O2       0.55107    0.21312    0.18224   1.00
O2       0.56006    0.35260    0.18263   1.00
C1       0.72687    0.24723    0.23975   1.00
C1       0.75277    0.47963    0.23975   1.00
C1       0.52037    0.27313    0.23975   1.00
C1       0.81063    0.39997    0.17661   1.00
C1       0.58933    0.18937    0.17661   1.00
C1       0.60003    0.41067    0.17661   1.00
O1       0.66667    0.33333    0.70833   1.00
Zn      0.66667    0.33333    0.73744   1.00
Zn      0.71818    0.29046    0.69942   1.00
Zn      0.57227    0.28182    0.69942   1.00
Zn      0.70954    0.42773    0.69942   1.00
O2       0.72807    0.30723    0.74746   1.00
O2       0.57917    0.27193    0.74746   1.00
O2       0.69277    0.42083    0.74746   1.00
O2       0.75362    0.26172    0.72152   1.00
O2       0.66204    0.21312    0.68224   1.00
O2       0.79253    0.35260    0.68263   1.00
O2       0.50811    0.24638    0.72152   1.00
O2       0.56006    0.20747    0.68263   1.00
O2       0.55107    0.33796    0.68224   1.00
O2       0.73828    0.49189    0.72152   1.00
O2       0.78688    0.44893    0.68224   1.00
O2       0.64740    0.43994    0.68263   1.00
C1       0.75277    0.27313    0.73975   1.00
C1       0.52037    0.24723    0.73975   1.00
C1       0.72687    0.47963    0.73975   1.00
C1       0.60003    0.18937    0.67661   1.00
C1       0.81063    0.41067    0.67661   1.00
C1       0.58933    0.39997    0.67661   1.00
O1       0.66667    0.33333    0.45833   1.00
Zn      0.66667    0.33333    0.42922   1.00
Zn      -0.37621   0.38485    0.46725   1.00
Zn      0.61515    0.23894    0.46725   1.00
Zn      0.76106    0.37621    0.46725   1.00
O2       0.64057    0.39473    0.41920   1.00
O2       0.60527    0.24583    0.41920   1.00
O2       0.75417    0.35943    0.41920   1.00
O2       0.59506    0.42028    0.44514   1.00
O2       0.54645    0.32871    0.48443   1.00
O2       -0.31407   0.45920    0.48404   1.00
O2       0.57972    0.17477    0.44514   1.00
O2       0.54080    0.22673    0.48404   1.00
O2       0.67129    0.21774    0.48443   1.00
O2       0.82523    0.40494    0.44514   1.00
O2       -0.21774   0.45355    0.48443   1.00
O2       0.77327    0.31407    0.48404   1.00
C1       0.60647    0.41943    0.42691   1.00
C1       0.58057    0.18703    0.42691   1.00
C1       0.81297    0.39353    0.42691   1.00
C1       0.52270    0.26670    0.49006   1.00
C1       -0.25600   0.47730    0.49006   1.00
C1       0.73330    0.25600    0.49006   1.00
O1       0.33333    0.66667    0.29167   1.00
Zn      0.33333    0.66667    0.26256   1.00
Zn      0.28182    0.70954    0.30058   1.00
Zn      0.42773    0.71818    0.30058   1.00
Zn      0.29046    0.57227    0.30058   1.00
O2       0.27193    0.69277    0.25254   1.00
O2       0.42083    0.72807    0.25254   1.00
O2       0.30723    0.57917    0.25254   1.00
O2       0.24638    0.73828    0.27848   1.00
O2       0.33796    0.78688    0.31776   1.00
O2       0.20747    0.64740    0.31737   1.00
O2       0.49189    0.75362    0.27848   1.00
O2       0.43994    0.79253    0.31737   1.00
O2       0.44893    0.66204    0.31776   1.00
O2       0.26172    0.50811    0.27848   1.00
O2       0.21312    0.55107    0.31776   1.00
O2       0.35260    0.56006    0.31737   1.00
C1       0.24723    0.72687    0.26025   1.00
C1       0.47963    0.75277    0.26025   1.00
C1       0.27313    0.52037    0.26025   1.00
C1       0.39997    0.81063    0.32339   1.00
C1       0.18937    0.58933    0.32339   1.00
C1       0.41067    0.60003    0.32339   1.00
O1       0.33333    0.66667    0.54167   1.00
Zn      0.33333    0.66667    0.57078   1.00
Zn      0.37621    0.61515    0.53275   1.00
Zn      0.38485    0.76106    0.53275   1.00
Zn      0.23894    -0.37621   0.53275   1.00
O2       0.35943    0.60527    0.58080   1.00
O2       0.39473    0.75417    0.58080   1.00
O2       0.24583    0.64057    0.58080   1.00
O2       0.40494    0.57972    0.55486   1.00
O2       0.45355    0.67129    0.51557   1.00
O2       0.31407    0.54080    0.51596   1.00
O2       0.42028    0.82523    0.55486   1.00
O2       0.45920    0.77327    0.51596   1.00
O2       0.32871    -0.21774   0.51557   1.00
O2       0.17477    0.59506    0.55486   1.00
O2       0.21774    0.54645    0.51557   1.00
O2       0.22673    -0.31407   0.51596   1.00
C1       0.39353    0.58057    0.57309   1.00
C1       0.41943    0.81297    0.57309   1.00
C1       0.18703    0.60647    0.57309   1.00
C1       0.47730    0.73330    0.50994   1.00
C1       0.25600    0.52270    0.50994   1.00
C1       0.26670    -0.25600   0.50994   1.00
O1       0.33333    0.66667    0.04167   1.00
Zn      0.33333    0.66667    0.07078   1.00
Zn      0.38485    -0.37621   0.03275   1.00
Zn      0.23894    0.61515    0.03275   1.00
Zn      0.37621    0.76106    0.03275   1.00
O2       0.39473    0.64057    0.08080   1.00
O2       0.24583    0.60527    0.08080   1.00
O2       0.35943    0.75417    0.08080   1.00
O2       0.42028    0.59506    0.05486   1.00
O2       0.32871    0.54645    0.01557   1.00
O2       0.45920    -0.31407   0.01596   1.00
O2       0.17477    0.57972    0.05486   1.00
O2       0.22673    0.54080    0.01596   1.00
O2       0.21774    0.67129    0.01557   1.00
O2       0.40494    0.82523    0.05486   1.00
O2       0.45355    -0.21774   0.01557   1.00
O2       0.31407    0.77327    0.01596   1.00
C1       0.41943    0.60647    0.07309   1.00
C1       0.18703    0.58057    0.07309   1.00
C1       0.39353    0.81297    0.07309   1.00
C1       0.26670    0.52270    0.00994   1.00
C1       0.47730    -0.25600   0.00994   1.00
C1       0.25600    0.73330    0.00994   1.00
O1       0.33333    0.66667    0.79167   1.00
Zn      0.33333    0.66667    0.76256   1.00
Zn      0.29046    0.71818    0.80058   1.00
Zn      0.28182    0.57227    0.80058   1.00
Zn      0.42773    0.70954    0.80058   1.00
O2       0.30723    0.72807    0.75254   1.00
O2       0.27193    0.57917    0.75254   1.00
O2       0.42083    0.69277    0.75254   1.00
O2       0.26172    0.75362    0.77848   1.00
O2       0.21312    0.66204    0.81776   1.00
O2       0.35260    0.79253    0.81737   1.00
O2       0.24638    0.50811    0.77848   1.00
O2       0.20747    0.56006    0.81737   1.00
O2       0.33796    0.55107    0.81776   1.00
O2       0.49189    0.73828    0.77848   1.00
O2       0.44893    0.78688    0.81776   1.00
O2       0.43994    0.64740    0.81737   1.00
C1       0.27313    0.75277    0.76025   1.00
C1       0.24723    0.52037    0.76025   1.00
C1       0.47963    0.72687    0.76025   1.00
C1       0.18937    0.60003    0.82339   1.00
C1       0.41067    0.81063    0.82339   1.00
C1       0.39997    0.58933    0.82339   1.00
C2       -0.22822   0.52854    0.50753   1.00
C3       -0.26563   0.54967    0.51727   1.00
H1       -0.31226   0.52777    0.51477   1.00
C3       -0.16054   0.56004    0.51175   1.00
H1       -0.13360   0.54539    0.50533   1.00
C3a      -0.23807   0.60259    0.53095   1.00
H1       -0.26426   0.61728    0.53782   1.00
C3b      -0.13068   0.61325    0.52542   1.00
H1       -0.08449   0.63393    0.52849   1.00
C6       -0.16970   0.63439    0.53551   1.00
C6       -0.13831   0.69071    0.55043   1.00
C3c      -0.13723   0.67686    0.57083   1.00
H1       -0.15143   0.63256    0.57505   1.00
C3d      -0.11172   0.75695    0.54330   1.00
H1       -0.11221   0.76801    0.52974   1.00
C3       -0.11039   0.73049    0.58451   1.00
H1       -0.10857   0.72150    0.59821   1.00
C3       -0.08634   0.80968    0.55847   1.00
H1       -0.06919   0.85454    0.55436   1.00
C2       -0.08630   0.79640    0.57845   1.00
C2       0.47146    0.24324    0.50753   1.00
C3       0.45033    0.18470    0.51727   1.00
H1       0.47223    0.15997    0.51477   1.00
C3       0.43996    0.27942    0.51175   1.00
H1       0.45461    0.32101    0.50533   1.00
C3a      0.39741    0.15934    0.53095   1.00
H1       0.38272    0.11847    0.53782   1.00
C3b      0.38675    0.25607    0.52542   1.00
H1       0.36607    0.28158    0.52849   1.00
C6       0.36561    0.19591    0.53551   1.00
C6       0.30929    0.17098    0.55043   1.00
C3c      0.32314    0.18591    0.57083   1.00
H1       0.36744    0.21601    0.57505   1.00
C3d      0.24305    0.13133    0.54330   1.00
H1       0.23199    0.11979    0.52974   1.00
C3       0.26951    0.15912    0.58451   1.00
H1       0.27850    0.16993    0.59821   1.00
C3       0.19032    0.10398    0.55847   1.00
H1       0.14546    0.07627    0.55436   1.00
C2       0.20360    0.11730    0.57845   1.00
C2       0.75676    0.22822    0.50753   1.00
C3       0.81530    0.26563    0.51727   1.00
H1       0.84003    0.31226    0.51477   1.00
C3       0.72058    0.16054    0.51175   1.00
H1       0.67899    0.13360    0.50533   1.00
C3a      0.84066    0.23807    0.53095   1.00
H1       0.88153    0.26426    0.53782   1.00
C3b      0.74393    0.13068    0.52542   1.00
H1       0.71842    0.08449    0.52849   1.00
C6       0.80409    0.16970    0.53551   1.00
C6       0.82902    0.13831    0.55043   1.00
C3c      0.81409    0.13723    0.57083   1.00
H1       0.78399    0.15143    0.57505   1.00
C3d      0.86867    0.11172    0.54330   1.00
H1       0.88021    0.11221    0.52974   1.00
C3       0.84088    0.11039    0.58451   1.00
H1       0.83007    0.10857    0.59821   1.00
C3       0.89602    0.08634    0.55847   1.00
H1       0.92373    0.06919    0.55436   1.00
C2       0.88270    0.08630    0.57845   1.00
C2       0.52854    -0.22822   0.99247   1.00
C3       0.54967    -0.26563   0.98273   1.00
H1       0.52777    -0.31226   0.98523   1.00
C3       0.56004    -0.16054   0.98825   1.00
H1       0.54539    -0.13360   0.99467   1.00
C3a      0.60259    -0.23807   0.96905   1.00
H1       0.61728    -0.26426   0.96218   1.00
C3b      0.61325    -0.13068   0.97458   1.00
H1       0.63393    -0.08449   0.97151   1.00
C6       0.63439    -0.16970   0.96449   1.00
C6       0.69071    -0.13831   0.94957   1.00
C3c      0.67686    -0.13723   0.92917   1.00
H1       0.63256    -0.15143   0.92495   1.00
C3d      0.75695    -0.11172   0.95670   1.00
H1       0.76801    -0.11221   0.97026   1.00
C3       0.73049    -0.11039   0.91549   1.00
H1       0.72150    -0.10857   0.90179   1.00
C3       0.80968    -0.08634   0.94153   1.00
H1       0.85454    -0.06919   0.94564   1.00
C2       0.79640    -0.08630   0.92155   1.00
C2       0.24324    0.47146    0.99247   1.00
C3       0.18470    0.45033    0.98273   1.00
H1       0.15997    0.47223    0.98523   1.00
C3       0.27942    0.43996    0.98825   1.00
H1       0.32101    0.45461    0.99467   1.00
C3a      0.15934    0.39741    0.96905   1.00
H1       0.11847    0.38272    0.96218   1.00
C3b      0.25607    0.38675    0.97458   1.00
H1       0.28158    0.36607    0.97151   1.00
C6       0.19591    0.36561    0.96449   1.00
C6       0.17098    0.30929    0.94957   1.00
C3c      0.18591    0.32314    0.92917   1.00
H1       0.21601    0.36744    0.92495   1.00
C3d      0.13133    0.24305    0.95670   1.00
H1       0.11979    0.23199    0.97026   1.00
C3       0.15912    0.26951    0.91549   1.00
H1       0.16993    0.27850    0.90179   1.00
C3       0.10398    0.19032    0.94153   1.00
H1       0.07627    0.14546    0.94564   1.00
C2       0.11730    0.20360    0.92155   1.00
C2       0.22822    0.75676    0.99247   1.00
C3       0.26563    0.81530    0.98273   1.00
H1       0.31226    0.84003    0.98523   1.00
C3       0.16054    0.72058    0.98825   1.00
H1       0.13360    0.67899    0.99467   1.00
C3a      0.23807    0.84066    0.96905   1.00
H1       0.26426    0.88153    0.96218   1.00
C3b      0.13068    0.74393    0.97458   1.00
H1       0.08449    0.71842    0.97151   1.00
C6       0.16970    0.80409    0.96449   1.00
C6       0.13831    0.82902    0.94957   1.00
C3c      0.13723    0.81409    0.92917   1.00
H1       0.15143    0.78399    0.92495   1.00
C3d      0.11172    0.86867    0.95670   1.00
H1       0.11221    0.88021    0.97026   1.00
C3       0.11039    0.84088    0.91549   1.00
H1       0.10857    0.83007    0.90179   1.00
C3       0.08634    0.89602    0.94153   1.00
H1       0.06919    0.92373    0.94564   1.00
C2       0.08630    0.88270    0.92155   1.00
C2       0.22822    0.47146    0.49247   1.00
C3       0.26563    0.45033    0.48273   1.00
H1       0.31226    0.47223    0.48523   1.00
C3       0.16054    0.43996    0.48825   1.00
H1       0.13360    0.45461    0.49467   1.00
C3a      0.23807    0.39741    0.46905   1.00
H1       0.26426    0.38272    0.46218   1.00
C3b      0.13068    0.38675    0.47458   1.00
H1       0.08449    0.36607    0.47151   1.00
C6       0.16970    0.36561    0.46449   1.00
C6       0.13831    0.30929    0.44957   1.00
C3c      0.13723    0.32314    0.42917   1.00
H1       0.15143    0.36744    0.42495   1.00
C3d      0.11172    0.24305    0.45670   1.00
H1       0.11221    0.23199    0.47026   1.00
C3       0.11039    0.26951    0.41549   1.00
H1       0.10857    0.27850    0.40179   1.00
C3       0.08634    0.19032    0.44153   1.00
H1       0.06919    0.14546    0.44564   1.00
C2       0.08630    0.20360    0.42155   1.00
C2       0.52854    0.75676    0.49247   1.00
C3       0.54967    0.81530    0.48273   1.00
H1       0.52777    0.84003    0.48523   1.00
C3       0.56004    0.72058    0.48825   1.00
H1       0.54539    0.67899    0.49467   1.00
C3a      0.60259    0.84066    0.46905   1.00
H1       0.61728    0.88153    0.46218   1.00
C3b      0.61325    0.74393    0.47458   1.00
H1       0.63393    0.71842    0.47151   1.00
C6       0.63439    0.80409    0.46449   1.00
C6       0.69071    0.82902    0.44957   1.00
C3c      0.67686    0.81409    0.42917   1.00
H1       0.63256    0.78399    0.42495   1.00
C3d      0.75695    0.86867    0.45670   1.00
H1       0.76801    0.88021    0.47026   1.00
C3       0.73049    0.84088    0.41549   1.00
H1       0.72150    0.83007    0.40179   1.00
C3       0.80968    0.89602    0.44153   1.00
H1       0.85454    0.92373    0.44564   1.00
C2       0.79640    0.88270    0.42155   1.00
C2       0.24324    -0.22822   0.49247   1.00
C3       0.18470    -0.26563   0.48273   1.00
H1       0.15997    -0.31226   0.48523   1.00
C3       0.27942    -0.16054   0.48825   1.00
H1       0.32101    -0.13360   0.49467   1.00
C3a      0.15934    -0.23807   0.46905   1.00
H1       0.11847    -0.26426   0.46218   1.00
C3b      0.25607    -0.13068   0.47458   1.00
H1       0.28158    -0.08449   0.47151   1.00
C6       0.19591    -0.16970   0.46449   1.00
C6       0.17098    -0.13831   0.44957   1.00
C3c      0.18591    -0.13723   0.42917   1.00
H1       0.21601    -0.15143   0.42495   1.00
C3d      0.13133    -0.11172   0.45670   1.00
H1       0.11979    -0.11221   0.47026   1.00
C3       0.15912    -0.11039   0.41549   1.00
H1       0.16993    -0.10857   0.40179   1.00
C3       0.10398    -0.08634   0.44153   1.00
H1       0.07627    -0.06919   0.44564   1.00
C2       0.11730    -0.08630   0.42155   1.00
C2       0.47146    0.22822    0.00753   1.00
C3       0.45033    0.26563    0.01727   1.00
H1       0.47223    0.31226    0.01477   1.00
C3       0.43996    0.16054    0.01175   1.00
H1       0.45461    0.13360    0.00533   1.00
C3a      0.39741    0.23807    0.03095   1.00
H1       0.38272    0.26426    0.03782   1.00
C3b      0.38675    0.13068    0.02542   1.00
H1       0.36607    0.08449    0.02849   1.00
C6       0.36561    0.16970    0.03551   1.00
C6       0.30929    0.13831    0.05043   1.00
C3c      0.32314    0.13723    0.07083   1.00
H1       0.36744    0.15143    0.07505   1.00
C3d      0.24305    0.11172    0.04330   1.00
H1       0.23199    0.11221    0.02974   1.00
C3       0.26951    0.11039    0.08451   1.00
H1       0.27850    0.10857    0.09821   1.00
C3       0.19032    0.08634    0.05847   1.00
H1       0.14546    0.06919    0.05436   1.00
C2       0.20360    0.08630    0.07845   1.00
C2       0.75676    0.52854    0.00753   1.00
C3       0.81530    0.54967    0.01727   1.00
H1       0.84003    0.52777    0.01477   1.00
C3       0.72058    0.56004    0.01175   1.00
H1       0.67899    0.54539    0.00533   1.00
C3a      0.84066    0.60259    0.03095   1.00
H1       0.88153    0.61728    0.03782   1.00
C3b      0.74393    0.61325    0.02542   1.00
H1       0.71842    0.63393    0.02849   1.00
C6       0.80409    0.63439    0.03551   1.00
C6       0.82902    0.69071    0.05043   1.00
C3c      0.81409    0.67686    0.07083   1.00
H1       0.78399    0.63256    0.07505   1.00
C3d      0.86867    0.75695    0.04330   1.00
H1       0.88021    0.76801    0.02974   1.00
C3       0.84088    0.73049    0.08451   1.00
H1       0.83007    0.72150    0.09821   1.00
C3       0.89602    0.80968    0.05847   1.00
H1       0.92373    0.85454    0.05436   1.00
C2       0.88270    0.79640    0.07845   1.00
C2       -0.22822   0.24324    0.00753   1.00
C3       -0.26563   0.18470    0.01727   1.00
H1       -0.31226   0.15997    0.01477   1.00
C3       -0.16054   0.27942    0.01175   1.00
H1       -0.13360   0.32101    0.00533   1.00
C3a      -0.23807   0.15934    0.03095   1.00
H1       -0.26426   0.11847    0.03782   1.00
C3b      -0.13068   0.25607    0.02542   1.00
H1       -0.08449   0.28158    0.02849   1.00
C6       -0.16970   0.19591    0.03551   1.00
C6       -0.13831   0.17098    0.05043   1.00
C3c      -0.13723   0.18591    0.07083   1.00
H1       -0.15143   0.21601    0.07505   1.00
C3d      -0.11172   0.13133    0.04330   1.00
H1       -0.11221   0.11979    0.02974   1.00
C3       -0.11039   0.15912    0.08451   1.00
H1       -0.10857   0.16993    0.09821   1.00
C3       -0.08634   0.10398    0.05847   1.00
H1       -0.06919   0.07627    0.05436   1.00
C2       -0.08630   0.11730    0.07845   1.00
C2       0.43845    0.86187    0.84086   1.00
C3       0.40104    0.88300    0.85060   1.00
H1       0.35441    0.86110    0.84810   1.00
C3       0.50613    0.89337    0.84508   1.00
H1       0.53307    0.87872    0.83866   1.00
C3a      0.42860    0.93592    0.86428   1.00
H1       0.40241    0.95061    0.87115   1.00
C3b      0.53599    0.94658    0.85875   1.00
H1       0.58218    0.96726    0.86182   1.00
C6       0.49697    0.96772    0.86884   1.00
C6       0.52836    0.02404    0.88376   1.00
C3c      0.52944    0.01019    0.90416   1.00
H1       0.51524    -0.03411   0.90838   1.00
C3d      0.55495    0.09028    0.87663   1.00
H1       0.55446    0.10134    0.86307   1.00
C3       0.55628    0.06382    0.91784   1.00
H1       0.55810    0.05483    0.93154   1.00
C3       0.58033    0.14301    0.89180   1.00
H1       0.59748    0.18787    0.88769   1.00
C2       0.58037    0.12973    0.91178   1.00
C2       0.13813    0.57657    0.84086   1.00
C3       0.11700    0.51803    0.85060   1.00
H1       0.13890    0.49330    0.84810   1.00
C3       0.10663    0.61275    0.84508   1.00
H1       0.12128    0.65434    0.83866   1.00
C3a      0.06408    0.49267    0.86428   1.00
H1       0.04939    0.45180    0.87115   1.00
C3b      0.05342    0.58940    0.85875   1.00
H1       0.03274    0.61491    0.86182   1.00
C6       0.03228    0.52924    0.86884   1.00
C6       0.97596    0.50431    0.88376   1.00
C3c      0.98981    0.51924    0.90416   1.00
H1       1.03411    0.54934    0.90838   1.00
C3d      0.90972    0.46466    0.87663   1.00
H1       0.89866    0.45312    0.86307   1.00
C3       0.93618    0.49245    0.91784   1.00
H1       0.94517    0.50326    0.93154   1.00
C3       0.85699    0.43731    0.89180   1.00
H1       0.81213    0.40960    0.88769   1.00
C2       0.87027    0.45063    0.91178   1.00
C2       0.42343    0.56155    0.84086   1.00
C3       0.48197    0.59896    0.85060   1.00
H1       0.50670    0.64559    0.84810   1.00
C3       0.38725    0.49387    0.84508   1.00
H1       0.34566    0.46693    0.83866   1.00
C3a      0.50733    0.57140    0.86428   1.00
H1       0.54820    0.59759    0.87115   1.00
C3b      0.41060    0.46401    0.85875   1.00
H1       0.38509    0.41782    0.86182   1.00
C6       0.47076    0.50303    0.86884   1.00
C6       0.49569    0.47164    0.88376   1.00
C3c      0.48076    0.47056    0.90416   1.00
H1       0.45066    0.48476    0.90838   1.00
C3d      0.53534    0.44505    0.87663   1.00
H1       0.54688    0.44554    0.86307   1.00
C3       0.50755    0.44372    0.91784   1.00
H1       0.49674    0.44190    0.93154   1.00
C3       0.56269    0.41967    0.89180   1.00
H1       0.59040    0.40252    0.88769   1.00
C2       0.54937    0.41963    0.91178   1.00
C2       0.19521    0.10511    0.32580   1.00
C3       0.21634    0.06770    0.31606   1.00
H1       0.19444    0.02107    0.31856   1.00
C3       0.22671    0.17279    0.32158   1.00
H1       0.21206    0.19973    0.32800   1.00
C3a      0.26926    0.09526    0.30238   1.00
H1       0.28395    0.06907    0.29551   1.00
C3b      0.27992    0.20265    0.30791   1.00
H1       0.30060    0.24884    0.30484   1.00
C6       0.30106    0.16363    0.29782   1.00
C6       0.35738    0.19502    0.28290   1.00
C3c      0.34353    0.19610    0.26250   1.00
H1       0.29923    0.18190    0.25828   1.00
C3d      0.42362    0.22161    0.29003   1.00
H1       0.43468    0.22112    0.30359   1.00
C3       0.39716    0.22294    0.24882   1.00
H1       0.38817    0.22476    0.23512   1.00
C3       0.47635    0.24699    0.27486   1.00
H1       0.52121    0.26414    0.27897   1.00
C2       0.46307    0.24703    0.25488   1.00
C2       0.90991    0.80479    0.32580   1.00
C3       0.85137    0.78366    0.31606   1.00
H1       0.82664    0.80556    0.31856   1.00
C3       0.94609    0.77329    0.32158   1.00
H1       0.98768    0.78794    0.32800   1.00
C3a      0.82601    0.73074    0.30238   1.00
H1       0.78514    0.71605    0.29551   1.00
C3b      0.92274    0.72008    0.30791   1.00
H1       0.94825    0.69940    0.30484   1.00
C6       0.86258    0.69894    0.29782   1.00
C6       0.83765    0.64262    0.28290   1.00
C3c      0.85258    0.65647    0.26250   1.00
H1       0.88268    0.70077    0.25828   1.00
C3d      0.79800    0.57638    0.29003   1.00
H1       0.78646    0.56532    0.30359   1.00
C3       0.82579    0.60284    0.24882   1.00
H1       0.83660    0.61183    0.23512   1.00
C3       0.77065    0.52365    0.27486   1.00
H1       0.74294    0.47879    0.27897   1.00
C2       0.78397    0.53693    0.25488   1.00
C2       0.89489    0.09009    0.32580   1.00
C3       0.93230    0.14863    0.31606   1.00
H1       0.97893    0.17336    0.31856   1.00
C3       0.82721    0.05391    0.32158   1.00
H1       0.80027    0.01232    0.32800   1.00
C3a      0.90474    0.17399    0.30238   1.00
H1       0.93093    0.21486    0.29551   1.00
C3b      0.79735    0.07726    0.30791   1.00
H1       0.75116    0.05175    0.30484   1.00
C6       0.83637    0.13742    0.29782   1.00
C6       0.80498    0.16235    0.28290   1.00
C3c      0.80390    0.14742    0.26250   1.00
H1       0.81810    0.11732    0.25828   1.00
C3d      0.77839    0.20200    0.29003   1.00
H1       0.77888    0.21354    0.30359   1.00
C3       0.77706    0.17421    0.24882   1.00
H1       0.77524    0.16340    0.23512   1.00
C3       0.75301    0.22935    0.27486   1.00
H1       0.73586    0.25706    0.27897   1.00
C2       0.75297    0.21603    0.25488   1.00
C2       0.89489    0.80479    0.82580   1.00
C3       0.93230    0.78366    0.81606   1.00
H1       0.97893    0.80556    0.81856   1.00
C3       0.82721    0.77329    0.82158   1.00
H1       0.80027    0.78794    0.82800   1.00
C3a      0.90474    0.73074    0.80238   1.00
H1       0.93093    0.71605    0.79551   1.00
C3b      0.79735    0.72008    0.80791   1.00
H1       0.75116    0.69940    0.80484   1.00
C6       0.83637    0.69894    0.79782   1.00
C6       0.80498    0.64262    0.78290   1.00
C3c      0.80390    0.65647    0.76250   1.00
H1       0.81810    0.70077    0.75828   1.00
C3d      0.77839    0.57638    0.79003   1.00
H1       0.77888    0.56532    0.80359   1.00
C3       0.77706    0.60284    0.74882   1.00
H1       0.77524    0.61183    0.73512   1.00
C3       0.75301    0.52365    0.77486   1.00
H1       0.73586    0.47879    0.77897   1.00
C2       0.75297    0.53693    0.75488   1.00
C2       0.19521    0.09009    0.82580   1.00
C3       0.21634    0.14863    0.81606   1.00
H1       0.19444    0.17336    0.81856   1.00
C3       0.22671    0.05391    0.82158   1.00
H1       0.21206    0.01232    0.82800   1.00
C3a      0.26926    0.17399    0.80238   1.00
H1       0.28395    0.21486    0.79551   1.00
C3b      0.27992    0.07726    0.80791   1.00
H1       0.30060    0.05175    0.80484   1.00
C6       0.30106    0.13742    0.79782   1.00
C6       0.35738    0.16235    0.78290   1.00
C3c      0.34353    0.14742    0.76250   1.00
H1       0.29923    0.11732    0.75828   1.00
C3d      0.42362    0.20200    0.79003   1.00
H1       0.43468    0.21354    0.80359   1.00
C3       0.39716    0.17421    0.74882   1.00
H1       0.38817    0.16340    0.73512   1.00
C3       0.47635    0.22935    0.77486   1.00
H1       0.52121    0.25706    0.77897   1.00
C2       0.46307    0.21603    0.75488   1.00
C2       0.90991    0.10511    0.82580   1.00
C3       0.85137    0.06770    0.81606   1.00
H1       0.82664    0.02107    0.81856   1.00
C3       0.94609    0.17279    0.82158   1.00
H1       0.98768    0.19973    0.82800   1.00
C3a      0.82601    0.09526    0.80238   1.00
H1       0.78514    0.06907    0.79551   1.00
C3b      0.92274    0.20265    0.80791   1.00
H1       0.94825    0.24884    0.80484   1.00
C6       0.86258    0.16363    0.79782   1.00
C6       0.83765    0.19502    0.78290   1.00
C3c      0.85258    0.19610    0.76250   1.00
H1       0.88268    0.18190    0.75828   1.00
C3d      0.79800    0.22161    0.79003   1.00
H1       0.78646    0.22112    0.80359   1.00
C3       0.82579    0.22294    0.74882   1.00
H1       0.83660    0.22476    0.73512   1.00
C3       0.77065    0.24699    0.77486   1.00
H1       0.74294    0.26414    0.77897   1.00
C2       0.78397    0.24703    0.75488   1.00
C2       0.13813    0.56155    0.34086   1.00
C3       0.11700    0.59896    0.35060   1.00
H1       0.13890    0.64559    0.34810   1.00
C3       0.10663    0.49387    0.34508   1.00
H1       0.12128    0.46693    0.33866   1.00
C3a      0.06408    0.57140    0.36428   1.00
H1       0.04939    0.59759    0.37115   1.00
C3b      0.05342    0.46401    0.35875   1.00
H1       0.03274    0.41782    0.36182   1.00
C6       0.03228    0.50303    0.36884   1.00
C6       0.97596    0.47164    0.38376   1.00
C3c      0.98981    0.47056    0.40416   1.00
H1       1.03411    0.48476    0.40838   1.00
C3d      0.90972    0.44505    0.37663   1.00
H1       0.89866    0.44554    0.36307   1.00
C3       0.93618    0.44372    0.41784   1.00
H1       0.94517    0.44190    0.43154   1.00
C3       0.85699    0.41967    0.39180   1.00
H1       0.81213    0.40252    0.38769   1.00
C2       0.87027    0.41963    0.41178   1.00
C2       0.42343    0.86187    0.34086   1.00
C3       0.48197    0.88300    0.35060   1.00
H1       0.50670    0.86110    0.34810   1.00
C3       0.38725    0.89337    0.34508   1.00
H1       0.34566    0.87872    0.33866   1.00
C3a      0.50733    0.93592    0.36428   1.00
H1       0.54820    0.95061    0.37115   1.00
C3b      0.41060    0.94658    0.35875   1.00
H1       0.38509    0.96726    0.36182   1.00
C6       0.47076    0.96772    0.36884   1.00
C6       0.49569    0.02404    0.38376   1.00
C3c      0.48076    0.01019    0.40416   1.00
H1       0.45066    -0.03411   0.40838   1.00
C3d      0.53534    0.09028    0.37663   1.00
H1       0.54688    0.10134    0.36307   1.00
C3       0.50755    0.06382    0.41784   1.00
H1       0.49674    0.05483    0.43154   1.00
C3       0.56269    0.14301    0.39180   1.00
H1       0.59040    0.18787    0.38769   1.00
C2       0.54937    0.12973    0.41178   1.00
C2       0.43845    0.57657    0.34086   1.00
C3       0.40104    0.51803    0.35060   1.00
H1       0.35441    0.49330    0.34810   1.00
C3       0.50613    0.61275    0.34508   1.00
H1       0.53307    0.65434    0.33866   1.00
C3a      0.42860    0.49267    0.36428   1.00
H1       0.40241    0.45180    0.37115   1.00
C3b      0.53599    0.58940    0.35875   1.00
H1       0.58218    0.61491    0.36182   1.00
C6       0.49697    0.52924    0.36884   1.00
C6       0.52836    0.50431    0.38376   1.00
C3c      0.52944    0.51924    0.40416   1.00
H1       0.51524    0.54934    0.40838   1.00
C3d      0.55495    0.46466    0.37663   1.00
H1       0.55446    0.45312    0.36307   1.00
C3       0.55628    0.49245    0.41784   1.00
H1       0.55810    0.50326    0.43154   1.00
C3       0.58033    0.43731    0.39180   1.00
H1       0.59748    0.40960    0.38769   1.00
C2       0.58037    0.45063    0.41178   1.00
C2       0.10511    0.19521    0.17420   1.00
C3       0.06770    0.21634    0.18394   1.00
H1       0.02107    0.19444    0.18144   1.00
C3       0.17279    0.22671    0.17842   1.00
H1       0.19973    0.21206    0.17200   1.00
C3a      0.09526    0.26926    0.19762   1.00
H1       0.06907    0.28395    0.20449   1.00
C3b      0.20265    0.27992    0.19209   1.00
H1       0.24884    0.30060    0.19516   1.00
C6       0.16363    0.30106    0.20218   1.00
C6       0.19502    0.35738    0.21710   1.00
C3c      0.19610    0.34353    0.23750   1.00
H1       0.18190    0.29923    0.24172   1.00
C3d      0.22161    0.42362    0.20997   1.00
H1       0.22112    0.43468    0.19641   1.00
C3       0.22294    0.39716    0.25118   1.00
H1       0.22476    0.38817    0.26488   1.00
C3       0.24699    0.47635    0.22514   1.00
H1       0.26414    0.52121    0.22103   1.00
C2       0.24703    0.46307    0.24512   1.00
C2       0.80479    0.90991    0.17420   1.00
C3       0.78366    0.85137    0.18394   1.00
H1       0.80556    0.82664    0.18144   1.00
C3       0.77329    0.94609    0.17842   1.00
H1       0.78794    0.98768    0.17200   1.00
C3a      0.73074    0.82601    0.19762   1.00
H1       0.71605    0.78514    0.20449   1.00
C3b      0.72008    0.92274    0.19209   1.00
H1       0.69940    0.94825    0.19516   1.00
C6       0.69894    0.86258    0.20218   1.00
C6       0.64262    0.83765    0.21710   1.00
C3c      0.65647    0.85258    0.23750   1.00
H1       0.70077    0.88268    0.24172   1.00
C3d      0.57638    0.79800    0.20997   1.00
H1       0.56532    0.78646    0.19641   1.00
C3       0.60284    0.82579    0.25118   1.00
H1       0.61183    0.83660    0.26488   1.00
C3       0.52365    0.77065    0.22514   1.00
H1       0.47879    0.74294    0.22103   1.00
C2       0.53693    0.78397    0.24512   1.00
C2       0.09009    0.89489    0.17420   1.00
C3       0.14863    0.93230    0.18394   1.00
H1       0.17336    0.97893    0.18144   1.00
C3       0.05391    0.82721    0.17842   1.00
H1       0.01232    0.80027    0.17200   1.00
C3a      0.17399    0.90474    0.19762   1.00
H1       0.21486    0.93093    0.20449   1.00
C3b      0.07726    0.79735    0.19209   1.00
H1       0.05175    0.75116    0.19516   1.00
C6       0.13742    0.83637    0.20218   1.00
C6       0.16235    0.80498    0.21710   1.00
C3c      0.14742    0.80390    0.23750   1.00
H1       0.11732    0.81810    0.24172   1.00
C3d      0.20200    0.77839    0.20997   1.00
H1       0.21354    0.77888    0.19641   1.00
C3       0.17421    0.77706    0.25118   1.00
H1       0.16340    0.77524    0.26488   1.00
C3       0.22935    0.75301    0.22514   1.00
H1       0.25706    0.73586    0.22103   1.00
C2       0.21603    0.75297    0.24512   1.00
C2       0.86187    0.43845    0.65914   1.00
C3       0.88300    0.40104    0.64940   1.00
H1       0.86110    0.35441    0.65190   1.00
C3       0.89337    0.50613    0.65492   1.00
H1       0.87872    0.53307    0.66134   1.00
C3a      0.93592    0.42860    0.63572   1.00
H1       0.95061    0.40241    0.62885   1.00
C3b      0.94658    0.53599    0.64125   1.00
H1       0.96726    0.58218    0.63818   1.00
C6       0.96772    0.49697    0.63116   1.00
C6       0.02404    0.52836    0.61624   1.00
C3c      0.01019    0.52944    0.59584   1.00
H1       -0.03411   0.51524    0.59162   1.00
C3d      0.09028    0.55495    0.62337   1.00
H1       0.10134    0.55446    0.63693   1.00
C3       0.06382    0.55628    0.58216   1.00
H1       0.05483    0.55810    0.56846   1.00
C3       0.14301    0.58033    0.60820   1.00
H1       0.18787    0.59748    0.61231   1.00
C2       0.12973    0.58037    0.58822   1.00
C2       0.57657    0.13813    0.65914   1.00
C3       0.51803    0.11700    0.64940   1.00
H1       0.49330    0.13890    0.65190   1.00
C3       0.61275    0.10663    0.65492   1.00
H1       0.65434    0.12128    0.66134   1.00
C3a      0.49267    0.06408    0.63572   1.00
H1       0.45180    0.04939    0.62885   1.00
C3b      0.58940    0.05342    0.64125   1.00
H1       0.61491    0.03274    0.63818   1.00
C6       0.52924    0.03228    0.63116   1.00
C6       0.50431    0.97596    0.61624   1.00
C3c      0.51924    0.98981    0.59584   1.00
H1       0.54934    1.03411    0.59162   1.00
C3d      0.46466    0.90972    0.62337   1.00
H1       0.45312    0.89866    0.63693   1.00
C3       0.49245    0.93618    0.58216   1.00
H1       0.50326    0.94517    0.56846   1.00
C3       0.43731    0.85699    0.60820   1.00
H1       0.40960    0.81213    0.61231   1.00
C2       0.45063    0.87027    0.58822   1.00
C2       0.56155    0.42343    0.65914   1.00
C3       0.59896    0.48197    0.64940   1.00
H1       0.64559    0.50670    0.65190   1.00
C3       0.49387    0.38725    0.65492   1.00
H1       0.46693    0.34566    0.66134   1.00
C3a      0.57140    0.50733    0.63572   1.00
H1       0.59759    0.54820    0.62885   1.00
C3b      0.46401    0.41060    0.64125   1.00
H1       0.41782    0.38509    0.63818   1.00
C6       0.50303    0.47076    0.63116   1.00
C6       0.47164    0.49569    0.61624   1.00
C3c      0.47056    0.48076    0.59584   1.00
H1       0.48476    0.45066    0.59162   1.00
C3d      0.44505    0.53534    0.62337   1.00
H1       0.44554    0.54688    0.63693   1.00
C3       0.44372    0.50755    0.58216   1.00
H1       0.44190    0.49674    0.56846   1.00
C3       0.41967    0.56269    0.60820   1.00
H1       0.40252    0.59040    0.61231   1.00
C2       0.41963    0.54937    0.58822   1.00
C2       0.56155    0.13813    0.15914   1.00
C3       0.59896    0.11700    0.14940   1.00
H1       0.64559    0.13890    0.15190   1.00
C3       0.49387    0.10663    0.15492   1.00
H1       0.46693    0.12128    0.16134   1.00
C3a      0.57140    0.06408    0.13572   1.00
H1       0.59759    0.04939    0.12885   1.00
C3b      0.46401    0.05342    0.14125   1.00
H1       0.41782    0.03274    0.13818   1.00
C6       0.50303    0.03228    0.13116   1.00
C6       0.47164    0.97596    0.11624   1.00
C3c      0.47056    0.98981    0.09584   1.00
H1       0.48476    1.03411    0.09162   1.00
C3d      0.44505    0.90972    0.12337   1.00
H1       0.44554    0.89866    0.13693   1.00
C3       0.44372    0.93618    0.08216   1.00
H1       0.44190    0.94517    0.06846   1.00
C3       0.41967    0.85699    0.10820   1.00
H1       0.40252    0.81213    0.11231   1.00
C2       0.41963    0.87027    0.08822   1.00
C2       0.86187    0.42343    0.15914   1.00
C3       0.88300    0.48197    0.14940   1.00
H1       0.86110    0.50670    0.15190   1.00
C3       0.89337    0.38725    0.15492   1.00
H1       0.87872    0.34566    0.16134   1.00
C3a      0.93592    0.50733    0.13572   1.00
H1       0.95061    0.54820    0.12885   1.00
C3b      0.94658    0.41060    0.14125   1.00
H1       0.96726    0.38509    0.13818   1.00
C6       0.96772    0.47076    0.13116   1.00
C6       0.02404    0.49569    0.11624   1.00
C3c      0.01019    0.48076    0.09584   1.00
H1       -0.03411   0.45066    0.09162   1.00
C3d      0.09028    0.53534    0.12337   1.00
H1       0.10134    0.54688    0.13693   1.00
C3       0.06382    0.50755    0.08216   1.00
H1       0.05483    0.49674    0.06846   1.00
C3       0.14301    0.56269    0.10820   1.00
H1       0.18787    0.59040    0.11231   1.00
C2       0.12973    0.54937    0.08822   1.00
C2       0.57657    0.43845    0.15914   1.00
C3       0.51803    0.40104    0.14940   1.00
H1       0.49330    0.35441    0.15190   1.00
C3       0.61275    0.50613    0.15492   1.00
H1       0.65434    0.53307    0.16134   1.00
C3a      0.49267    0.42860    0.13572   1.00
H1       0.45180    0.40241    0.12885   1.00
C3b      0.58940    0.53599    0.14125   1.00
H1       0.61491    0.58218    0.13818   1.00
C6       0.52924    0.49697    0.13116   1.00
C6       0.50431    0.52836    0.11624   1.00
C3c      0.51924    0.52944    0.09584   1.00
H1       0.54934    0.51524    0.09162   1.00
C3d      0.46466    0.55495    0.12337   1.00
H1       0.45312    0.55446    0.13693   1.00
C3       0.49245    0.55628    0.08216   1.00
H1       0.50326    0.55810    0.06846   1.00
C3       0.43731    0.58033    0.10820   1.00
H1       0.40960    0.59748    0.11231   1.00
C2       0.45063    0.58037    0.08822   1.00
C2       0.80479    0.89489    0.67420   1.00
C3       0.78366    0.93230    0.68394   1.00
H1       0.80556    0.97893    0.68144   1.00
C3       0.77329    0.82721    0.67842   1.00
H1       0.78794    0.80027    0.67200   1.00
C3a      0.73074    0.90474    0.69762   1.00
H1       0.71605    0.93093    0.70449   1.00
C3b      0.72008    0.79735    0.69209   1.00
H1       0.69940    0.75116    0.69516   1.00
C6       0.69894    0.83637    0.70218   1.00
C6       0.64262    0.80498    0.71710   1.00
C3c      0.65647    0.80390    0.73750   1.00
H1       0.70077    0.81810    0.74172   1.00
C3d      0.57638    0.77839    0.70997   1.00
H1       0.56532    0.77888    0.69641   1.00
C3       0.60284    0.77706    0.75118   1.00
H1       0.61183    0.77524    0.76488   1.00
C3       0.52365    0.75301    0.72514   1.00
H1       0.47879    0.73586    0.72103   1.00
C2       0.53693    0.75297    0.74512   1.00
C2       0.09009    0.19521    0.67420   1.00
C3       0.14863    0.21634    0.68394   1.00
H1       0.17336    0.19444    0.68144   1.00
C3       0.05391    0.22671    0.67842   1.00
H1       0.01232    0.21206    0.67200   1.00
C3a      0.17399    0.26926    0.69762   1.00
H1       0.21486    0.28395    0.70449   1.00
C3b      0.07726    0.27992    0.69209   1.00
H1       0.05175    0.30060    0.69516   1.00
C6       0.13742    0.30106    0.70218   1.00
C6       0.16235    0.35738    0.71710   1.00
C3c      0.14742    0.34353    0.73750   1.00
H1       0.11732    0.29923    0.74172   1.00
C3d      0.20200    0.42362    0.70997   1.00
H1       0.21354    0.43468    0.69641   1.00
C3       0.17421    0.39716    0.75118   1.00
H1       0.16340    0.38817    0.76488   1.00
C3       0.22935    0.47635    0.72514   1.00
H1       0.25706    0.52121    0.72103   1.00
C2       0.21603    0.46307    0.74512   1.00
C2       0.10511    0.90991    0.67420   1.00
C3       0.06770    0.85137    0.68394   1.00
H1       0.02107    0.82664    0.68144   1.00
C3       0.17279    0.94609    0.67842   1.00
H1       0.19973    0.98768    0.67200   1.00
C3a      0.09526    0.82601    0.69762   1.00
H1       0.06907    0.78514    0.70449   1.00
C3b      0.20265    0.92274    0.69209   1.00
H1       0.24884    0.94825    0.69516   1.00
C6       0.16363    0.86258    0.70218   1.00
C6       0.19502    0.83765    0.71710   1.00
C3c      0.19610    0.85258    0.73750   1.00
H1       0.18190    0.88268    0.74172   1.00
C3d      0.22161    0.79800    0.70997   1.00
H1       0.22112    0.78646    0.69641   1.00
C3       0.22294    0.82579    0.75118   1.00
H1       0.22476    0.83660    0.76488   1.00
C3       0.24699    0.77065    0.72514   1.00
H1       0.26414    0.74294    0.72103   1.00
C2       0.24703    0.78397    0.74512   1.00
