data_IRMOF10_interpen_symm_ligand11lp_label_d_1.

_audit_creation_method             'generated by an auxiliary program of Tobunporous'

_symmetry_space_group_name_H-M     'P 1'
_symmetry_Int_Tables_number        1
_symmetry_cell_setting             triclinic

_cell_length_a                    22.6523
_cell_length_b                    22.6523
_cell_length_c                    65.9502
_cell_angle_alpha                 90.0000
_cell_angle_beta                  90.0000
_cell_angle_gamma                 120.0000

loop_
_atom_site_label
_atom_site_fract_x
_atom_site_fract_y
_atom_site_fract_z
_atom_site_occupancy
O1       0.00000    -0.00000   0.62500   1.00
Zn1      0.00000    -0.00000   0.59589   1.00
Zn1      0.94848    1.04288    0.63392   1.00
Zn1      0.09439    0.05152    0.63392   1.00
Zn1      -0.04288   0.90561    0.63392   1.00
O2       0.93860    0.02610    0.58587   1.00
O2       0.08750    0.06140    0.58587   1.00
O2       -0.02610   0.91250    0.58587   1.00
O2       0.91305    0.07161    0.61181   1.00
O2       0.00462    0.12022    0.65110   1.00
O2       0.87413    0.98074    0.65071   1.00
O2       0.15856    0.08695    0.61181   1.00
O2       0.10660    0.12587    0.65071   1.00
O2       0.11559    0.99538    0.65110   1.00
O2       -0.07161   0.84144    0.61181   1.00
O2       0.87978    0.88441    0.65110   1.00
O2       0.01926    0.89340    0.65071   1.00
C1       0.91390    0.06020    0.59358   1.00
C1       0.14630    0.08610    0.59358   1.00
C1       -0.06020   0.85370    0.59358   1.00
C1       0.06663    0.14397    0.65673   1.00
C1       0.85603    0.92267    0.65673   1.00
C1       0.07733    0.93337    0.65673   1.00
O1       -0.00000   0.00000    0.87500   1.00
Zn1      -0.00000   0.00000    0.90411   1.00
Zn1      1.04288    0.94848    0.86608   1.00
Zn1      0.05152    0.09439    0.86608   1.00
Zn1      0.90561    -0.04288   0.86608   1.00
O2       0.02610    0.93860    0.91413   1.00
O2       0.06140    0.08750    0.91413   1.00
O2       0.91250    -0.02610   0.91413   1.00
O2       0.07161    0.91305    0.88819   1.00
O2       0.12022    0.00462    0.84890   1.00
O2       0.98074    0.87413    0.84929   1.00
O2       0.08695    0.15856    0.88819   1.00
O2       0.12587    0.10660    0.84929   1.00
O2       0.99538    0.11559    0.84890   1.00
O2       0.84144    -0.07161   0.88819   1.00
O2       0.88441    0.87978    0.84890   1.00
O2       0.89340    0.01926    0.84929   1.00
C1       0.06020    0.91390    0.90642   1.00
C1       0.08610    0.14630    0.90642   1.00
C1       0.85370    -0.06020   0.90642   1.00
C1       0.14397    0.06663    0.84327   1.00
C1       0.92267    0.85603    0.84327   1.00
C1       0.93337    0.07733    0.84327   1.00
O1       0.00000    0.00000    0.37500   1.00
Zn1      0.00000    0.00000    0.40411   1.00
Zn1      0.05152    -0.04288   0.36608   1.00
Zn1      0.90561    0.94848    0.36608   1.00
Zn1      1.04288    0.09439    0.36608   1.00
O2       0.06140    -0.02610   0.41413   1.00
O2       0.91250    0.93860    0.41413   1.00
O2       0.02610    0.08750    0.41413   1.00
O2       0.08695    -0.07161   0.38819   1.00
O2       0.99538    0.87978    0.34890   1.00
O2       0.12587    0.01926    0.34929   1.00
O2       0.84144    0.91305    0.38819   1.00
O2       0.89340    0.87413    0.34929   1.00
O2       0.88441    0.00462    0.34890   1.00
O2       0.07161    0.15856    0.38819   1.00
O2       0.12022    0.11559    0.34890   1.00
O2       0.98074    0.10660    0.34929   1.00
C1       0.08610    -0.06020   0.40642   1.00
C1       0.85370    0.91390    0.40642   1.00
C1       0.06020    0.14630    0.40642   1.00
C1       0.93337    0.85603    0.34327   1.00
C1       0.14397    0.07733    0.34327   1.00
C1       0.92267    0.06663    0.34327   1.00
O1       0.00000    0.00000    0.12500   1.00
Zn1      0.00000    0.00000    0.09589   1.00
Zn1      -0.04288   0.05152    0.13392   1.00
Zn1      0.94848    0.90561    0.13392   1.00
Zn1      0.09439    1.04288    0.13392   1.00
O2       -0.02610   0.06140    0.08587   1.00
O2       0.93860    0.91250    0.08587   1.00
O2       0.08750    0.02610    0.08587   1.00
O2       -0.07161   0.08695    0.11181   1.00
O2       0.87978    0.99538    0.15110   1.00
O2       0.01926    0.12587    0.15071   1.00
O2       0.91305    0.84144    0.11181   1.00
O2       0.87413    0.89340    0.15071   1.00
O2       0.00462    0.88441    0.15110   1.00
O2       0.15856    0.07161    0.11181   1.00
O2       0.11559    0.12022    0.15110   1.00
O2       0.10660    0.98074    0.15071   1.00
C1       -0.06020   0.08610    0.09358   1.00
C1       0.91390    0.85370    0.09358   1.00
C1       0.14630    0.06020    0.09358   1.00
C1       0.85603    0.93337    0.15673   1.00
C1       0.07733    0.14397    0.15673   1.00
C1       0.06663    0.92267    0.15673   1.00
O1       0.66667    0.33333    0.95833   1.00
Zn1      0.66667    0.33333    0.92922   1.00
Zn1      0.61515    0.37621    0.96725   1.00
Zn1      0.76106    0.38485    0.96725   1.00
Zn1      -0.37621   0.23894    0.96725   1.00
O2       0.60527    0.35943    0.91920   1.00
O2       0.75417    0.39473    0.91920   1.00
O2       0.64057    0.24583    0.91920   1.00
O2       0.57972    0.40494    0.94514   1.00
O2       0.67129    0.45355    0.98443   1.00
O2       0.54080    0.31407    0.98404   1.00
O2       0.82523    0.42028    0.94514   1.00
O2       0.77327    0.45920    0.98404   1.00
O2       -0.21774   0.32871    0.98443   1.00
O2       0.59506    0.17477    0.94514   1.00
O2       0.54645    0.21774    0.98443   1.00
O2       -0.31407   0.22673    0.98404   1.00
C1       0.58057    0.39353    0.92691   1.00
C1       0.81297    0.41943    0.92691   1.00
C1       0.60647    0.18703    0.92691   1.00
C1       0.73330    0.47730    0.99006   1.00
C1       0.52270    0.25600    0.99006   1.00
C1       -0.25600   0.26670    0.99006   1.00
O1       0.66667    0.33333    0.20833   1.00
Zn1      0.66667    0.33333    0.23744   1.00
Zn1      0.70954    0.28182    0.19942   1.00
Zn1      0.71818    0.42773    0.19942   1.00
Zn1      0.57227    0.29046    0.19942   1.00
O2       0.69277    0.27193    0.24746   1.00
O2       0.72807    0.42083    0.24746   1.00
O2       0.57917    0.30723    0.24746   1.00
O2       0.73828    0.24638    0.22152   1.00
O2       0.78688    0.33796    0.18224   1.00
O2       0.64740    0.20747    0.18263   1.00
O2       0.75362    0.49189    0.22152   1.00
O2       0.79253    0.43994    0.18263   1.00
O2       0.66204    0.44893    0.18224   1.00
O2       0.50811    0.26172    0.22152   1.00
O2       0.55107    0.21312    0.18224   1.00
O2       0.56006    0.35260    0.18263   1.00
C1       0.72687    0.24723    0.23975   1.00
C1       0.75277    0.47963    0.23975   1.00
C1       0.52037    0.27313    0.23975   1.00
C1       0.81063    0.39997    0.17661   1.00
C1       0.58933    0.18937    0.17661   1.00
C1       0.60003    0.41067    0.17661   1.00
O1       0.66667    0.33333    0.70833   1.00
Zn1      0.66667    0.33333    0.73744   1.00
Zn1      0.71818    0.29046    0.69942   1.00
Zn1      0.57227    0.28182    0.69942   1.00
Zn1      0.70954    0.42773    0.69942   1.00
O2       0.72807    0.30723    0.74746   1.00
O2       0.57917    0.27193    0.74746   1.00
O2       0.69277    0.42083    0.74746   1.00
O2       0.75362    0.26172    0.72152   1.00
O2       0.66204    0.21312    0.68224   1.00
O2       0.79253    0.35260    0.68263   1.00
O2       0.50811    0.24638    0.72152   1.00
O2       0.56006    0.20747    0.68263   1.00
O2       0.55107    0.33796    0.68224   1.00
O2       0.73828    0.49189    0.72152   1.00
O2       0.78688    0.44893    0.68224   1.00
O2       0.64740    0.43994    0.68263   1.00
C1       0.75277    0.27313    0.73975   1.00
C1       0.52037    0.24723    0.73975   1.00
C1       0.72687    0.47963    0.73975   1.00
C1       0.60003    0.18937    0.67661   1.00
C1       0.81063    0.41067    0.67661   1.00
C1       0.58933    0.39997    0.67661   1.00
O1       0.66667    0.33333    0.45833   1.00
Zn1      0.66667    0.33333    0.42922   1.00
Zn1      -0.37621   0.38485    0.46725   1.00
Zn1      0.61515    0.23894    0.46725   1.00
Zn1      0.76106    0.37621    0.46725   1.00
O2       0.64057    0.39473    0.41920   1.00
O2       0.60527    0.24583    0.41920   1.00
O2       0.75417    0.35943    0.41920   1.00
O2       0.59506    0.42028    0.44514   1.00
O2       0.54645    0.32871    0.48443   1.00
O2       -0.31407   0.45920    0.48404   1.00
O2       0.57972    0.17477    0.44514   1.00
O2       0.54080    0.22673    0.48404   1.00
O2       0.67129    0.21774    0.48443   1.00
O2       0.82523    0.40494    0.44514   1.00
O2       -0.21774   0.45355    0.48443   1.00
O2       0.77327    0.31407    0.48404   1.00
C1       0.60647    0.41943    0.42691   1.00
C1       0.58057    0.18703    0.42691   1.00
C1       0.81297    0.39353    0.42691   1.00
C1       0.52270    0.26670    0.49006   1.00
C1       -0.25600   0.47730    0.49006   1.00
C1       0.73330    0.25600    0.49006   1.00
O1       0.33333    0.66667    0.29167   1.00
Zn1      0.33333    0.66667    0.26256   1.00
Zn1      0.28182    0.70954    0.30058   1.00
Zn1      0.42773    0.71818    0.30058   1.00
Zn1      0.29046    0.57227    0.30058   1.00
O2       0.27193    0.69277    0.25254   1.00
O2       0.42083    0.72807    0.25254   1.00
O2       0.30723    0.57917    0.25254   1.00
O2       0.24638    0.73828    0.27848   1.00
O2       0.33796    0.78688    0.31776   1.00
O2       0.20747    0.64740    0.31737   1.00
O2       0.49189    0.75362    0.27848   1.00
O2       0.43994    0.79253    0.31737   1.00
O2       0.44893    0.66204    0.31776   1.00
O2       0.26172    0.50811    0.27848   1.00
O2       0.21312    0.55107    0.31776   1.00
O2       0.35260    0.56006    0.31737   1.00
C1       0.24723    0.72687    0.26025   1.00
C1       0.47963    0.75277    0.26025   1.00
C1       0.27313    0.52037    0.26025   1.00
C1       0.39997    0.81063    0.32339   1.00
C1       0.18937    0.58933    0.32339   1.00
C1       0.41067    0.60003    0.32339   1.00
O1       0.33333    0.66667    0.54167   1.00
Zn1      0.33333    0.66667    0.57078   1.00
Zn1      0.37621    0.61515    0.53275   1.00
Zn1      0.38485    0.76106    0.53275   1.00
Zn1      0.23894    -0.37621   0.53275   1.00
O2       0.35943    0.60527    0.58080   1.00
O2       0.39473    0.75417    0.58080   1.00
O2       0.24583    0.64057    0.58080   1.00
O2       0.40494    0.57972    0.55486   1.00
O2       0.45355    0.67129    0.51557   1.00
O2       0.31407    0.54080    0.51596   1.00
O2       0.42028    0.82523    0.55486   1.00
O2       0.45920    0.77327    0.51596   1.00
O2       0.32871    -0.21774   0.51557   1.00
O2       0.17477    0.59506    0.55486   1.00
O2       0.21774    0.54645    0.51557   1.00
O2       0.22673    -0.31407   0.51596   1.00
C1       0.39353    0.58057    0.57309   1.00
C1       0.41943    0.81297    0.57309   1.00
C1       0.18703    0.60647    0.57309   1.00
C1       0.47730    0.73330    0.50994   1.00
C1       0.25600    0.52270    0.50994   1.00
C1       0.26670    -0.25600   0.50994   1.00
O1       0.33333    0.66667    0.04167   1.00
Zn1      0.33333    0.66667    0.07078   1.00
Zn1      0.38485    -0.37621   0.03275   1.00
Zn1      0.23894    0.61515    0.03275   1.00
Zn1      0.37621    0.76106    0.03275   1.00
O2       0.39473    0.64057    0.08080   1.00
O2       0.24583    0.60527    0.08080   1.00
O2       0.35943    0.75417    0.08080   1.00
O2       0.42028    0.59506    0.05486   1.00
O2       0.32871    0.54645    0.01557   1.00
O2       0.45920    -0.31407   0.01596   1.00
O2       0.17477    0.57972    0.05486   1.00
O2       0.22673    0.54080    0.01596   1.00
O2       0.21774    0.67129    0.01557   1.00
O2       0.40494    0.82523    0.05486   1.00
O2       0.45355    -0.21774   0.01557   1.00
O2       0.31407    0.77327    0.01596   1.00
C1       0.41943    0.60647    0.07309   1.00
C1       0.18703    0.58057    0.07309   1.00
C1       0.39353    0.81297    0.07309   1.00
C1       0.26670    0.52270    0.00994   1.00
C1       0.47730    -0.25600   0.00994   1.00
C1       0.25600    0.73330    0.00994   1.00
O1       0.33333    0.66667    0.79167   1.00
Zn1      0.33333    0.66667    0.76256   1.00
Zn1      0.29046    0.71818    0.80058   1.00
Zn1      0.28182    0.57227    0.80058   1.00
Zn1      0.42773    0.70954    0.80058   1.00
O2       0.30723    0.72807    0.75254   1.00
O2       0.27193    0.57917    0.75254   1.00
O2       0.42083    0.69277    0.75254   1.00
O2       0.26172    0.75362    0.77848   1.00
O2       0.21312    0.66204    0.81776   1.00
O2       0.35260    0.79253    0.81737   1.00
O2       0.24638    0.50811    0.77848   1.00
O2       0.20747    0.56006    0.81737   1.00
O2       0.33796    0.55107    0.81776   1.00
O2       0.49189    0.73828    0.77848   1.00
O2       0.44893    0.78688    0.81776   1.00
O2       0.43994    0.64740    0.81737   1.00
C1       0.27313    0.75277    0.76025   1.00
C1       0.24723    0.52037    0.76025   1.00
C1       0.47963    0.72687    0.76025   1.00
C1       0.18937    0.60003    0.82339   1.00
C1       0.41067    0.81063    0.82339   1.00
C1       0.39997    0.58933    0.82339   1.00
C5       0.10872    0.94548    0.54817   1.00
H2       0.08370    0.97669    0.54983   1.00
H2       0.11671    0.94319    0.53163   1.00
C5       0.17794    0.98058    0.55944   1.00
H2       0.21814    1.02185    0.54999   1.00
H2       0.19381    0.94254    0.56311   1.00
O_3      -0.09771   0.59235    0.55082   1.00
C4       -0.14388   0.68696    0.55124   1.00
C3c      -0.08729   0.74997    0.54593   1.00
H1       -0.06505   0.75676    0.53100   1.00
C3d      -0.17270   0.67948    0.57067   1.00
C3       -0.05797   0.80464    0.55977   1.00
O2       -0.00812   0.86707    0.55270   1.00
C3       -0.14283   0.73340    0.58462   1.00
H1       -0.16522   0.72449    0.59958   1.00
C2       -0.08513   0.79721    0.57957   1.00
C5       -0.12505   0.54477    0.56684   1.00
H2       -0.15100   0.49107    0.56130   1.00
H2       -0.16256   0.55217    0.57585   1.00
C5       -0.06630   0.55604    0.58052   1.00
H2       -0.03917   0.61022    0.58560   1.00
H2       -0.02949   0.54790    0.57141   1.00
C5       -0.09192   0.50778    0.59882   1.00
H2       -0.11948   0.45359    0.59385   1.00
H2       -0.12683   0.51749    0.60830   1.00
H2       -0.04813   0.51573    0.60839   1.00
C5       -0.28824   0.61038    0.57149   1.00
C5       0.05694    0.87458    0.55611   1.00
H2       -0.29276   0.61164    0.55472   1.00
H2       -0.29541   0.65158    0.57823   1.00
H2       0.06184    0.83452    0.54768   1.00
H2       0.06652    0.86979    0.57252   1.00
H2       0.17490    1.00537    0.57377   1.00
H2       -0.41378   0.50826    0.55299   1.00
H2       -0.42662   0.56163    0.57099   1.00
C2       -0.23056   0.51646    0.51065   1.00
C3       -0.25195   0.56525    0.50985   1.00
O2       -0.31143   0.55063    0.49996   1.00
C3       -0.17798   0.52731    0.52436   1.00
H1       -0.15924   0.49184    0.52496   1.00
C3a      -0.22203   0.62212    0.52297   1.00
H1       -0.24166   0.65692    0.52299   1.00
C3b      -0.14987   0.58274    0.53783   1.00
C4       -0.17191   0.63063    0.53724   1.00
O_3      -0.22513   0.61702    0.57718   1.00
C5       -0.29650   0.58267    0.48080   1.00
H2       -0.26427   0.63921    0.48227   1.00
C5       -0.36466   0.56501    0.47099   1.00
H2       -0.26931   0.56379    0.47100   1.00
H2       -0.38224   0.59888    0.47756   1.00
H2       -0.40264   0.51204    0.47565   1.00
C5       -0.36052   0.57124    0.44768   1.00
H2       -0.31873   0.62273    0.44330   1.00
H2       -0.40931   0.56365    0.44125   1.00
H2       -0.35143   0.53150    0.44067   1.00
C5       -0.34423   0.54171    0.57927   1.00
H2       -0.34718   0.54474    0.59607   1.00
H2       -0.32899   0.50288    0.57603   1.00
C5       -0.41364   0.52051    0.56940   1.00
H2       -0.45438   0.47401    0.57692   1.00
C5       0.13361    0.26998    0.57574   1.00
H2       0.08613    0.22267    0.57143   1.00
H2       0.14623    0.30534    0.56270   1.00
C5       0.12054    0.30081    0.59501   1.00
H2       0.09535    0.33076    0.59107   1.00
H2       0.16961    0.33475    0.60285   1.00
O_3      0.44153    0.27537    0.56339   1.00
C4       0.31276    0.16924    0.55114   1.00
C3c      0.26862    0.19588    0.55233   1.00
H1       0.27671    0.23755    0.54253   1.00
C3d      0.30075    0.11430    0.56384   1.00
C3       0.21424    0.17010    0.56628   1.00
O2       0.16839    0.19300    0.56487   1.00
C3       0.24744    0.08938    0.57802   1.00
H1       0.24168    0.04883    0.58794   1.00
C2       0.20277    0.11623    0.57958   1.00
C5       0.47718    0.25211    0.57552   1.00
H2       0.52876    0.26773    0.56933   1.00
H2       0.44832    0.19540    0.57689   1.00
C5       0.48559    0.28334    0.59646   1.00
H2       0.43417    0.26933    0.60242   1.00
H2       0.51501    0.33993    0.59494   1.00
C5       0.52189    0.25867    0.61090   1.00
H2       0.57309    0.27208    0.60497   1.00
H2       0.49139    0.20243    0.61298   1.00
H2       0.52892    0.28320    0.62599   1.00
C5       0.32694    0.03867    0.54944   1.00
C5       0.18790    0.24900    0.57806   1.00
H2       0.32995    0.05950    0.53395   1.00
H2       0.27417    -0.00466   0.55194   1.00
H2       0.23901    0.29198    0.57364   1.00
H2       0.19134    0.23606    0.59423   1.00
H2       0.08539    0.25998    0.60571   1.00
H2       0.39371    0.00356    0.51827   1.00
H2       0.32015    -0.07066   0.52904   1.00
C2       0.48351    0.25044    0.51066   1.00
C3       0.41859    0.19974    0.50385   1.00
O2       0.41221    0.16395    0.48627   1.00
C3       0.48960    0.27562    0.53065   1.00
H1       0.53823    0.31566    0.53615   1.00
C3a      0.36226    0.17435    0.51714   1.00
H1       0.31374    0.13284    0.51208   1.00
C3b      0.43395    0.24873    0.54404   1.00
C4       0.36967    0.19760    0.53735   1.00
O_3      0.34569    0.08968    0.56435   1.00
C5       0.38987    0.18916    0.47022   1.00
H2       0.33946    0.18450    0.47372   1.00
C5       0.38299    0.14630    0.45147   1.00
H2       0.42744    0.24374    0.46709   1.00
H2       0.33393    0.09722    0.45253   1.00
H2       0.42436    0.13334    0.45220   1.00
C5       0.38678    0.18305    0.43140   1.00
H2       0.34871    0.20036    0.43162   1.00
H2       0.37587    0.14832    0.41823   1.00
H2       0.43886    0.22784    0.42890   1.00
C5       0.37685    0.01230    0.55081   1.00
H2       0.36557    -0.01881   0.56486   1.00
H2       0.42921    0.05689    0.55255   1.00
C5       0.37346    -0.02953   0.53198   1.00
H2       0.40512    -0.05377   0.53443   1.00
C5       0.74512    0.03447    0.63218   1.00
H2       0.73877    -0.01623   0.62849   1.00
H2       0.69349    0.02849    0.63092   1.00
C5       0.77251    0.05455    0.65408   1.00
H2       0.73037    0.02951    0.66532   1.00
H2       0.79772    0.11085    0.65599   1.00
O_3      0.86251    0.27929    0.55576   1.00
C4       0.82996    0.14270    0.55113   1.00
C3c      0.79448    0.10888    0.56879   1.00
H1       0.74560    0.10439    0.57203   1.00
C3d      0.89312    0.14714    0.54703   1.00
C3       0.82165    0.08131    0.58262   1.00
O2       0.78046    0.04185    0.59823   1.00
C3       0.92091    0.12089    0.56097   1.00
H1       0.97060    0.12764    0.55753   1.00
C2       0.88606    0.08720    0.57901   1.00
C5       0.92835    0.32604    0.54851   1.00
H2       0.92748    0.36203    0.53714   1.00
H2       0.95287    0.29900    0.54137   1.00
C5       0.97093    0.36701    0.56654   1.00
H2       0.97021    0.33092    0.57816   1.00
H2       0.94633    0.39428    0.57344   1.00
C5       1.04433    0.41766    0.56010   1.00
H2       1.04539    0.45356    0.54839   1.00
H2       1.06971    0.39034    0.55385   1.00
H2       1.07425    0.44817    0.57338   1.00
C5       0.91356    0.14201    0.51338   1.00
C5       0.79185    0.08264    0.61564   1.00
H2       0.85942    0.12305    0.50921   1.00
H2       0.92089    0.09732    0.51581   1.00
H2       0.77861    0.12302    0.61241   1.00
H2       0.84623    0.10877    0.62075   1.00
H2       0.80975    0.03736    0.65779   1.00
H2       0.88298    0.14961    0.47125   1.00
H2       0.92188    0.09713    0.47525   1.00
C2       0.75366    0.23425    0.50965   1.00
C3       0.73375    0.16466    0.50767   1.00
O2       0.70431    0.13010    0.48993   1.00
C3       0.79621    0.27134    0.52611   1.00
H1       0.81092    0.32422    0.52835   1.00
C3a      0.75788    0.13447    0.52168   1.00
H1       0.74535    0.08223    0.51929   1.00
C3b      0.82188    0.24176    0.53963   1.00
C4       0.80290    0.17287    0.53746   1.00
O_3      0.93241    0.18433    0.53067   1.00
C5       0.63312    0.08899    0.49237   1.00
H2       0.62033    0.05083    0.50476   1.00
C5       0.60458    0.05169    0.47226   1.00
H2       0.60945    0.12066    0.49597   1.00
H2       0.61335    0.00755    0.47154   1.00
H2       0.63546    0.08709    0.45985   1.00
C5       0.52829    0.02778    0.46939   1.00
H2       0.49898    -0.00304   0.48270   1.00
H2       0.50807    -0.00396   0.45547   1.00
H2       0.51972    0.07201    0.46749   1.00
C5       0.95884    0.18461    0.49592   1.00
H2       1.01128    0.19357    0.49854   1.00
H2       0.96225    0.23541    0.49633   1.00
C5       0.93122    0.15027    0.47523   1.00
H2       0.96895    0.17905    0.46313   1.00
C5       0.69493    -0.10983   0.86157   1.00
H2       0.72989    -0.05380   0.86200   1.00
H2       0.64267    -0.11736   0.86038   1.00
C5       0.71137    -0.14002   0.84278   1.00
H2       0.68726    -0.13337   0.82891   1.00
H2       0.69234    -0.19534   0.84513   1.00
O_3      0.60933    -0.28511   0.95337   1.00
C4       0.68713    -0.14258   0.94883   1.00
C3c      0.67861    -0.12925   0.92856   1.00
H1       0.62877    -0.14095   0.92323   1.00
C3d      0.75270    -0.12605   0.95554   1.00
C3       0.73363    -0.10169   0.91482   1.00
O2       0.72325    -0.08234   0.89598   1.00
C3       0.80732    -0.09982   0.94180   1.00
H1       0.85614    -0.09020   0.94747   1.00
C2       0.79944    -0.08672   0.92120   1.00
C5       0.64199    -0.31146   0.96559   1.00
H2       0.60934    -0.34237   0.97849   1.00
H2       0.69079    -0.26963   0.97191   1.00
C5       0.65720    -0.35707   0.95230   1.00
H2       0.68821    -0.32668   0.93910   1.00
H2       0.60808    -0.39899   0.94624   1.00
C5       0.69506    -0.38606   0.96428   1.00
H2       0.66458    -0.41607   0.97757   1.00
H2       0.74519    -0.34434   0.96974   1.00
H2       0.70440    -0.42044   0.95444   1.00
C5       0.77506    -0.08950   0.98836   1.00
C5       0.70403    -0.13634   0.88202   1.00
H2       0.73050    -0.08148   0.98912   1.00
H2       0.82093    -0.04060   0.98380   1.00
H2       0.65513    -0.18168   0.88687   1.00
H2       0.74298    -0.15278   0.88076   1.00
H2       0.76745    -0.11328   0.83975   1.00
H2       0.72917    -0.07529   1.02798   1.00
H2       0.81670    -0.00992   1.02275   1.00
C2       0.52043    -0.23340   0.99072   1.00
C3       0.55645    -0.16203   0.98791   1.00
O2       0.55044    -0.11979   1.00181   1.00
C3       0.53865    -0.27363   0.97872   1.00
H1       0.51092    -0.32853   0.98013   1.00
C3a      0.61032    -0.13264   0.97374   1.00
H1       0.63990    -0.07769   0.97259   1.00
C3b      0.59365    -0.24409   0.96511   1.00
C4       0.63008    -0.17307   0.96255   1.00
O_3      0.76279    -0.14292   0.97490   1.00
C5       0.50649    -0.09755   0.99430   1.00
H2       0.52600    -0.06899   0.97975   1.00
C5       0.50345    -0.05031   1.01035   1.00
H2       0.45426    -0.14154   0.99168   1.00
H2       0.55004    0.00077    1.00891   1.00
H2       0.50626    -0.07061   1.02549   1.00
C5       0.43872    -0.04430   1.00871   1.00
H2       0.43393    -0.02920   0.99303   1.00
H2       0.44107    -0.00529   1.01947   1.00
H2       0.39194    -0.09346   1.01268   1.00
C5       0.78708    -0.10970   1.00932   1.00
H2       0.83793    -0.10618   1.00940   1.00
H2       0.74834    -0.16425   1.01192   1.00
C5       0.78250    -0.06497   1.02613   1.00
H2       0.79848    -0.07632   1.04087   1.00
C5       0.27135    0.13531    0.92366   1.00
H2       0.22438    0.08761    0.92805   1.00
H2       0.30712    0.14820    0.93661   1.00
C5       0.30191    0.12255    0.90428   1.00
H2       0.33233    0.09775    0.90808   1.00
H2       0.33534    0.17170    0.89640   1.00
O_3      0.27435    0.44189    0.93647   1.00
C4       0.16925    0.31276    0.94886   1.00
C3c      0.19637    0.26906    0.94752   1.00
H1       0.23842    0.27749    0.95720   1.00
C3d      0.11382    0.30029    0.93632   1.00
C3       0.17058    0.21468    0.93356   1.00
O2       0.19403    0.16924    0.93484   1.00
C3       0.08888    0.24699    0.92214   1.00
H1       0.04792    0.24088    0.91234   1.00
C2       0.11620    0.20276    0.92042   1.00
C5       0.25033    0.47716    0.92447   1.00
H2       0.26573    0.52865    0.93069   1.00
H2       0.19359    0.44792    0.92324   1.00
C5       0.28105    0.48579    0.90344   1.00
H2       0.26727    0.43447    0.89745   1.00
H2       0.33767    0.51559    0.90483   1.00
C5       0.25555    0.52170    0.88915   1.00
H2       0.26872    0.57279    0.89511   1.00
H2       0.19927    0.49083    0.88719   1.00
H2       0.27970    0.52890    0.87398   1.00
C5       0.03802    0.32570    0.95101   1.00
C5       0.24973    0.18916    0.92149   1.00
H2       0.05934    0.32890    0.96643   1.00
H2       -0.00510   0.27278    0.94856   1.00
H2       0.29256    0.24042    0.92586   1.00
H2       0.23626    0.19245    0.90537   1.00
H2       0.26092    0.08718    0.89365   1.00
H2       0.00301    0.39187    0.98239   1.00
H2       -0.07117   0.31797    0.97174   1.00
C2       0.25039    0.48350    0.98934   1.00
C3       0.20024    0.41842    0.99622   1.00
O2       0.16483    0.41176    1.01390   1.00
C3       0.27507    0.48977    0.96928   1.00
H1       0.31470    0.53853    0.96373   1.00
C3a      0.17488    0.36211    0.98292   1.00
H1       0.13375    0.31344    0.98803   1.00
C3b      0.24819    0.43412    0.95589   1.00
C4       0.19760    0.36968    0.96265   1.00
O_3      0.08867    0.34481    0.93596   1.00
C5       0.19079    0.38976    1.02984   1.00
H2       0.18647    0.33954    1.02627   1.00
C5       0.14832    0.38255    1.04871   1.00
H2       0.24537    0.42766    1.03284   1.00
H2       0.09944    0.33326    1.04774   1.00
H2       0.13492    0.42362    1.04809   1.00
C5       0.18576    0.38666    1.06866   1.00
H2       0.20348    0.34892    1.06833   1.00
H2       0.15133    0.37550    1.08193   1.00
H2       0.23035    0.43891    1.07110   1.00
C5       0.01104    0.37515    0.94980   1.00
H2       -0.02050   0.36362    0.93582   1.00
H2       0.05531    0.42767    0.94799   1.00
C5       -0.03042   0.37141    0.96875   1.00
H2       -0.05512   0.40271    0.96643   1.00
C5       0.03473    0.74529    0.86779   1.00
H2       -0.01599   0.73889    0.87147   1.00
H2       0.02880    0.69368    0.86904   1.00
C5       0.05487    0.77276    0.84589   1.00
H2       0.02988    0.73064    0.83465   1.00
H2       0.11117    0.79801    0.84400   1.00
O_3      0.27933    0.86264    0.94427   1.00
C4       0.14270    0.82996    0.94887   1.00
C3c      0.10895    0.79452    0.93120   1.00
H1       0.10451    0.74567    0.92794   1.00
C3d      0.14707    0.89308    0.95299   1.00
C3       0.08138    0.82169    0.91737   1.00
O2       0.04198    0.78052    0.90174   1.00
C3       0.12082    0.92088    0.93905   1.00
H1       0.12752    0.97053    0.94249   1.00
C2       0.08720    0.88606    0.92099   1.00
C5       0.32603    0.92847    0.95153   1.00
H2       0.36200    0.92760    0.96291   1.00
H2       0.29893    0.95293    0.95868   1.00
C5       0.36703    0.97112    0.93352   1.00
H2       0.33095    0.97041    0.92190   1.00
H2       0.39435    0.94658    0.92663   1.00
C5       0.41761    1.04451    0.93999   1.00
H2       0.45349    1.04558    0.95170   1.00
H2       0.39023    1.06984    0.94623   1.00
H2       0.44815    1.07450    0.92671   1.00
C5       0.14182    0.91341    0.98664   1.00
C5       0.08283    0.79200    0.88434   1.00
H2       0.12289    0.85926    0.99080   1.00
H2       0.09711    0.92070    0.98420   1.00
H2       0.12323    0.77880    0.88758   1.00
H2       0.10893    0.84640    0.87924   1.00
H2       0.03764    0.80997    0.84219   1.00
H2       0.14933    0.88272    1.02876   1.00
H2       0.09680    0.92157    1.02476   1.00
C2       0.23425    0.75366    0.99035   1.00
C3       0.16464    0.73369    0.99232   1.00
O2       0.13004    0.70417    1.01005   1.00
C3       0.27136    0.79627    0.97391   1.00
H1       0.32426    0.81103    0.97168   1.00
C3a      0.13445    0.75782    0.97831   1.00
H1       0.08219    0.74524    0.98069   1.00
C3b      0.24178    0.82194    0.96039   1.00
C4       0.17287    0.80290    0.96254   1.00
O_3      0.18419    0.93234    0.96936   1.00
C5       0.08898    0.63299    1.00758   1.00
H2       0.05085    0.62021    0.99519   1.00
C5       0.05164    0.60437    1.02768   1.00
H2       0.12071    0.60937    1.00399   1.00
H2       0.00746    0.61309    1.02840   1.00
H2       0.08699    0.63523    1.04011   1.00
C5       0.02778    0.52808    1.03054   1.00
H2       -0.00299   0.49879    1.01722   1.00
H2       -0.00400   0.50780    1.04445   1.00
H2       0.07203    0.51955    1.03244   1.00
C5       0.18434    0.95865    1.00411   1.00
H2       0.19326    1.01109    1.00150   1.00
H2       0.23517    0.96211    1.00371   1.00
C5       0.14995    0.93095    1.02479   1.00
H2       0.17868    0.96866    1.03690   1.00
C5       -0.03432   0.02391    0.46189   1.00
H2       -0.07465   0.01959    0.45139   1.00
H2       -0.05065   0.02963    0.47730   1.00
C5       -0.02935   -0.04171   0.46065   1.00
H2       -0.06953   -0.08299   0.47010   1.00
H2       0.02162    -0.03117   0.46602   1.00
O_3      0.25965    0.34102    0.47108   1.00
C4       0.14288    0.31345    0.44862   1.00
C3c      0.09173    0.24821    0.45467   1.00
H1       0.07354    0.23975    0.47015   1.00
C3d      0.16518    0.32361    0.42831   1.00
C3       0.06401    0.19287    0.44105   1.00
O2       0.00851    0.13277    0.44735   1.00
C3       0.13861    0.26834    0.41481   1.00
H1       0.15901    0.27807    0.39958   1.00
C2       0.08739    0.20186    0.42073   1.00
C5       0.32015    0.37496    0.45954   1.00
H2       0.35911    0.42331    0.46684   1.00
H2       0.30968    0.38731    0.44404   1.00
C5       0.34925    0.32755    0.45774   1.00
H2       0.30962    0.27851    0.45097   1.00
H2       0.36010    0.31609    0.47329   1.00
C5       0.41412    0.35966    0.44475   1.00
H2       0.45374    0.40889    0.45135   1.00
H2       0.40286    0.36895    0.42902   1.00
H2       0.43547    0.32491    0.44398   1.00
C5       0.19384    0.42845    0.41574   1.00
C5       0.03046    0.08946    0.45570   1.00
H2       0.16861    0.43943    0.42849   1.00
H2       0.15669    0.40549    0.40301   1.00
H2       0.06330    0.11400    0.46924   1.00
H2       0.06089    0.07779    0.44471   1.00
H2       -0.03765   -0.06184   0.44479   1.00
H2       0.22779    0.56826    0.42186   1.00
H2       0.19050    0.53551    0.39709   1.00
C2       0.23459    0.48188    0.48990   1.00
C3       0.17397    0.46683    0.47960   1.00
O2       0.15310    0.51451    0.47864   1.00
C3       0.26177    0.43822    0.48697   1.00
H1       0.30712    0.44732    0.49503   1.00
C3a      0.14321    0.41031    0.46638   1.00
H1       0.09904    0.40175    0.45773   1.00
C3b      0.23229    0.38335    0.47332   1.00
C4       0.17263    0.36907    0.46286   1.00
O_3      0.21896    0.38552    0.42199   1.00
C5       0.09996    0.49819    0.49263   1.00
H2       0.05507    0.44686    0.48944   1.00
C5       0.07901    0.55251    0.49038   1.00
H2       0.11742    0.49870    0.50847   1.00
H2       0.04527    0.53975    0.47688   1.00
H2       0.12600    0.60177    0.48695   1.00
C5       0.04328    0.55927    0.50943   1.00
H2       -0.00031   0.50852    0.51356   1.00
H2       0.02377    0.59496    0.50662   1.00
H2       0.07931    0.58045    0.52253   1.00
C5       0.25444    0.49523    0.40859   1.00
H2       0.27230    0.48607    0.39380   1.00
H2       0.29687    0.51033    0.41963   1.00
C5       0.23664    0.55231    0.40667   1.00
H2       0.27956    0.59792    0.39944   1.00
C5       0.74298    0.70737    0.37987   1.00
H2       0.74804    0.74689    0.36892   1.00
H2       0.68977    0.66456    0.37832   1.00
C5       0.79417    0.68354    0.37431   1.00
H2       0.77379    0.64522    0.36186   1.00
H2       0.80442    0.66048    0.38781   1.00
O_3      0.68192    0.74729    0.48101   1.00
C4       0.68666    0.83065    0.44865   1.00
C3c      0.68469    0.79555    0.43088   1.00
H1       0.63990    0.74714    0.42747   1.00
C3d      0.74512    0.89412    0.45265   1.00
C3       0.74041    0.82157    0.41740   1.00
O2       0.73160    0.78864    0.39916   1.00
C3       0.80119    0.91954    0.43947   1.00
H1       0.84583    0.96724    0.44354   1.00
C2       0.80034    0.88434    0.42154   1.00
C5       0.72507    0.78502    0.49723   1.00
H2       0.69714    0.77374    0.51193   1.00
H2       0.74972    0.84096    0.49435   1.00
C5       0.77996    0.76540    0.49905   1.00
H2       0.80661    0.77487    0.48419   1.00
H2       0.75482    0.70960    0.50212   1.00
C5       0.83075    0.80606    0.51595   1.00
H2       0.80440    0.79721    0.53081   1.00
H2       0.85761    0.86164    0.51255   1.00
H2       0.86960    0.78996    0.51735   1.00
C5       0.72282    0.97046    0.46846   1.00
C5       0.75342    0.74023    0.40083   1.00
H2       0.66735    0.94000    0.46508   1.00
H2       0.74829    1.00878    0.45614   1.00
H2       0.72217    0.70090    0.41240   1.00
H2       0.80806    0.76382    0.40555   1.00
H2       0.84332    0.72693    0.36865   1.00
H2       0.63213    1.00119    0.49103   1.00
H2       0.69494    1.07343    0.47638   1.00
C2       0.52204    0.75058    0.49133   1.00
C3       0.52153    0.78927    0.47461   1.00
O2       0.47854    0.81599    0.47443   1.00
C3       0.57606    0.73644    0.49297   1.00
H1       0.57700    0.70549    0.50530   1.00
C3a      0.57519    0.81416    0.46036   1.00
H1       0.57610    0.84694    0.44829   1.00
C3b      0.63046    0.76310    0.47913   1.00
C4       0.63044    0.80242    0.46269   1.00
O_3      0.75169    0.92820    0.47068   1.00
C5       0.42156    0.77623    0.46195   1.00
H2       0.43742    0.77455    0.44602   1.00
C5       0.37722    0.80968    0.46228   1.00
H2       0.39151    0.72302    0.46778   1.00
H2       0.39977    0.85390    0.45169   1.00
H2       0.38095    0.83092    0.47777   1.00
C5       0.30217    0.75985    0.45671   1.00
H2       0.29976    0.73511    0.44194   1.00
H2       0.27294    0.78722    0.45544   1.00
H2       0.27628    0.71987    0.46863   1.00
C5       0.73235    1.00774    0.48847   1.00
H2       0.78724    1.04686    0.49010   1.00
H2       0.71980    0.97047    0.50105   1.00
C5       0.68721    1.04066    0.48984   1.00
H2       0.70063    1.07318    0.50361   1.00
C5       0.23760    0.13638    0.43566   1.00
H2       0.24906    0.13653    0.41928   1.00
H2       0.28753    0.15911    0.44357   1.00
C5       0.20372    0.18031    0.43917   1.00
H2       0.24283    0.23544    0.43989   1.00
H2       0.17435    0.16521    0.45362   1.00
O_3      0.12604    -0.16610   0.48918   1.00
C4       0.17013    -0.14352   0.44855   1.00
C3c      0.20186    -0.07274   0.44556   1.00
H1       0.24780    -0.03916   0.45386   1.00
C3d      0.11086    -0.18645   0.43737   1.00
C3       0.17458    -0.04414   0.43214   1.00
O2       0.21282    0.02461    0.42816   1.00
C3       0.08285    -0.15805   0.42428   1.00
H1       0.03600    -0.19285   0.41658   1.00
C2       0.11387    -0.08654   0.42125   1.00
C5       0.06143    -0.22499   0.49161   1.00
H2       0.06229    -0.26094   0.50300   1.00
H2       0.04246    -0.25286   0.47695   1.00
C5       0.01239    -0.20214   0.49892   1.00
H2       0.01297    -0.16474   0.48783   1.00
H2       0.03148    -0.17495   0.51365   1.00
C5       -0.05997   -0.26309   0.50128   1.00
H2       -0.06084   -0.30087   0.51223   1.00
H2       -0.07998   -0.28885   0.48644   1.00
H2       -0.09475   -0.24556   0.50706   1.00
C5       0.10124    -0.28829   0.42854   1.00
C5       0.19360    0.06112    0.44144   1.00
H2       0.15550    -0.27049   0.43225   1.00
H2       0.09748    -0.27887   0.41210   1.00
H2       0.20358    0.05301    0.45749   1.00
H2       0.13823    0.04476    0.44021   1.00
H2       0.16880    0.17463    0.42639   1.00
H2       0.14136    -0.39021   0.43322   1.00
H2       0.10784    -0.39088   0.40811   1.00
C2       0.24623    -0.23307   0.49082   1.00
C3       0.27174    -0.21887   0.47080   1.00
O2       0.30766    -0.24831   0.46314   1.00
C3       0.19799    -0.21395   0.49668   1.00
H1       0.17879    -0.22251   0.51204   1.00
C3a      0.24753    -0.18793   0.45710   1.00
H1       0.26464    -0.18096   0.44152   1.00
C3b      0.17240    -0.18519   0.48283   1.00
C4       0.19702    -0.17207   0.46285   1.00
O_3      0.07484    -0.25601   0.44088   1.00
C5       0.37819    -0.20079   0.46323   1.00
H2       0.39021    -0.15505   0.45386   1.00
C5       0.41415    -0.23680   0.45424   1.00
H2       0.39694    -0.18376   0.47898   1.00
H2       0.40985    -0.23684   0.43741   1.00
H2       0.38518    -0.29112   0.45914   1.00
C5       0.48952    -0.20385   0.46070   1.00
H2       0.51635    -0.14847   0.45714   1.00
H2       0.51537    -0.22770   0.45255   1.00
H2       0.49435    -0.21112   0.47727   1.00
C5       0.05937    -0.36457   0.43262   1.00
H2       0.00802    -0.38439   0.42569   1.00
H2       0.05161    -0.37232   0.44931   1.00
C5       0.09436    -0.40304   0.42440   1.00
H2       0.05937    -0.45893   0.42574   1.00
C5       0.29840    0.06693    0.13567   1.00
H2       0.27715    0.09912    0.14091   1.00
H2       0.35424    0.09750    0.13835   1.00
C5       0.26693    0.00032    0.14825   1.00
H2       0.29341    0.00892    0.16310   1.00
H2       0.27110    -0.03993   0.13976   1.00
O_3      0.35575    0.06033    0.03219   1.00
C4       0.31308    0.14391    0.05126   1.00
C3c      0.32304    0.13987    0.07212   1.00
H1       0.37408    0.15928    0.07794   1.00
C3d      0.24624    0.11920    0.04402   1.00
C3       0.26767    0.11005    0.08571   1.00
O2       0.28189    0.11541    0.10615   1.00
C3       0.19089    0.08830    0.05746   1.00
H1       0.14039    0.06790    0.05110   1.00
C2       0.20000    0.08312    0.07857   1.00
C5       0.31315    0.02271    0.01586   1.00
H2       0.34228    0.03097    0.00151   1.00
H2       0.27301    0.03665    0.01313   1.00
C5       0.27919    -0.05238   0.02140   1.00
H2       0.25166    -0.06030   0.03605   1.00
H2       0.31970    -0.06587   0.02391   1.00
C5       0.22989    -0.09702   0.00470   1.00
H2       0.25695    -0.08900   -0.01001   1.00
H2       0.18807    -0.08522   0.00267   1.00
H2       0.20670    -0.15178   0.00881   1.00
C5       0.23896    0.17974    0.01744   1.00
C5       0.28365    0.05703    0.11288   1.00
H2       0.29149    0.22299    0.01996   1.00
H2       0.20231    0.19018    0.02581   1.00
H2       0.32488    0.05296    0.10487   1.00
H2       0.23464    0.00869    0.10998   1.00
H2       0.21211    -0.01827   0.15180   1.00
H2       0.30221    0.27728    -0.01501   1.00
H2       0.22407    0.27228    -0.00590   1.00
C2       0.47857    0.22698    0.00886   1.00
C3       0.46039    0.27041    0.01905   1.00
O2       0.48311    0.33572    0.01206   1.00
C3       0.44319    0.15673    0.01377   1.00
H1       0.45706    0.12243    0.00663   1.00
C3a      0.40680    0.24286    0.03334   1.00
H1       0.39093    0.27612    0.04015   1.00
C3b      0.38850    0.12915    0.02751   1.00
C4       0.36979    0.17222    0.03739   1.00
O_3      0.23323    0.11727    0.02345   1.00
C5       0.53791    0.38334    0.02406   1.00
H2       0.52243    0.38069    0.04027   1.00
C5       0.55929    0.45418    0.01559   1.00
H2       0.58189    0.37423    0.02326   1.00
H2       0.52311    0.47010    0.02133   1.00
H2       0.55255    0.44915    -0.00118   1.00
C5       0.63329    0.50783    0.02106   1.00
H2       0.64051    0.50833    0.03774   1.00
H2       0.64505    0.55963    0.01613   1.00
H2       0.67077    0.49712    0.01325   1.00
C5       0.22303    0.17479    -0.00514   1.00
H2       0.16729    0.13978    -0.00725   1.00
H2       0.24955    0.15068    -0.01279   1.00
C5       0.24548    0.24511    -0.01456   1.00
H2       0.22677    0.23887    -0.03043   1.00
C5       0.72040    0.72749    0.12585   1.00
H2       0.76508    0.73707    0.13522   1.00
H2       0.68211    0.67274    0.12801   1.00
C5       0.69181    0.77295    0.13343   1.00
H2       0.65850    0.74982    0.14693   1.00
H2       0.66172    0.77954    0.12120   1.00
O_3      0.73249    0.67183    0.02249   1.00
C4       0.83072    0.68674    0.05132   1.00
C3c      0.80065    0.68140    0.07036   1.00
H1       0.75626    0.63396    0.07476   1.00
C3d      0.88913    0.74870    0.04601   1.00
C3       0.82652    0.73703    0.08387   1.00
O2       0.79964    0.72554    0.10314   1.00
C3       0.91422    0.80458    0.05925   1.00
H1       0.95765    0.85178    0.05422   1.00
C2       0.88398    0.80028    0.07848   1.00
C5       0.76129    0.71614    0.00577   1.00
H2       0.74731    0.68822    -0.00896   1.00
H2       0.81805    0.74573    0.00687   1.00
C5       0.73405    0.76533    0.00593   1.00
H2       0.74634    0.79185    0.02088   1.00
H2       0.67742    0.73529    0.00463   1.00
C5       0.76483    0.81712    -0.01142   1.00
H2       0.75315    0.79096    -0.02638   1.00
H2       0.82115    0.84875    -0.00974   1.00
H2       0.74319    0.85168    -0.01132   1.00
C5       0.96570    0.73603    0.02672   1.00
C5       0.74603    0.74043    0.10392   1.00
H2       0.94123    0.68063    0.03014   1.00
H2       1.00735    0.76466    0.03793   1.00
H2       0.70423    0.70628    0.09337   1.00
H2       0.76294    0.79423    0.09944   1.00
H2       0.73375    0.82417    0.13834   1.00
H2       0.99974    0.65381    0.00112   1.00
H2       1.07354    0.72141    0.01405   1.00
C2       0.74994    0.52194    0.00870   1.00
C3       0.79644    0.52637    0.02371   1.00
O2       0.82920    0.48909    0.02188   1.00
C3       0.72858    0.57095    0.00881   1.00
H1       0.69170    0.56794    -0.00216   1.00
C3a      0.82164    0.57996    0.03799   1.00
H1       0.86013    0.58490    0.04865   1.00
C3b      0.75539    0.62542    0.02262   1.00
C4       0.80240    0.63037    0.03734   1.00
O_3      0.91753    0.75823    0.02686   1.00
C5       0.79846    0.43147    0.03468   1.00
H2       0.80068    0.44662    0.05090   1.00
C5       0.83822    0.39369    0.03204   1.00
H2       0.74409    0.39704    0.03042   1.00
H2       0.88574    0.42020    0.04123   1.00
H2       0.85442    0.39916    0.01587   1.00
C5       0.79646    0.31777    0.03800   1.00
H2       0.77619    0.31312    0.05363   1.00
H2       0.82877    0.29351    0.03752   1.00
H2       0.75326    0.28857    0.02724   1.00
C5       0.99640    0.74864    0.00553   1.00
H2       1.03061    0.80455    0.00349   1.00
H2       0.95431    0.73225    -0.00570   1.00
C5       1.03531    0.71002    0.00186   1.00
H2       1.06285    0.72592    -0.01285   1.00
C5       0.13634    0.23737    0.06428   1.00
H2       0.13656    0.24889    0.08065   1.00
H2       0.15909    0.28728    0.05634   1.00
C5       0.18020    0.20341    0.06076   1.00
H2       0.23534    0.24247    0.06002   1.00
H2       0.16502    0.17399    0.04632   1.00
O_3      -0.16627   0.12590    0.01083   1.00
C4       -0.14352   0.17013    0.05145   1.00
C3c      -0.07274   0.20181    0.05442   1.00
H1       -0.03915   0.24771    0.04610   1.00
C3d      -0.18645   0.11091    0.06265   1.00
C3       -0.04413   0.17453    0.06784   1.00
O2       0.02463    0.21273    0.07180   1.00
C3       -0.15806   0.08290    0.07574   1.00
H1       -0.19286   0.03609    0.08346   1.00
C2       -0.08654   0.11387    0.07875   1.00
C5       -0.22521   0.06131    0.00843   1.00
H2       -0.26118   0.06218    -0.00295   1.00
H2       -0.25304   0.04242    0.02309   1.00
C5       -0.20245   0.01220    0.00112   1.00
H2       -0.16503   0.01277    0.01221   1.00
H2       -0.17530   0.03122    -0.01362   1.00
C5       -0.26345   -0.06014   -0.00121   1.00
H2       -0.30126   -0.06101   -0.01215   1.00
H2       -0.28917   -0.08009   0.01364   1.00
H2       -0.24600   -0.09499   -0.00699   1.00
C5       -0.28822   0.10143    0.07150   1.00
C5       0.06106    0.19341    0.05852   1.00
H2       -0.27037   0.15569    0.06778   1.00
H2       -0.27875   0.09772    0.08794   1.00
H2       0.05291    0.20335    0.04247   1.00
H2       0.04465    0.13803    0.05976   1.00
H2       0.17453    0.16852    0.07355   1.00
H2       -0.39005   0.14167    0.06683   1.00
H2       -0.39068   0.10822    0.09195   1.00
C2       -0.23308   0.24622    0.00918   1.00
C3       -0.21879   0.27180    0.02919   1.00
O2       -0.24815   0.30780    0.03685   1.00
C3       -0.21404   0.19792    0.00333   1.00
H1       -0.22267   0.17867    -0.01202   1.00
C3a      -0.18785   0.24760    0.04290   1.00
H1       -0.18081   0.26476    0.05847   1.00
C3b      -0.18528   0.17233    0.01718   1.00
C4       -0.17207   0.19702    0.03715   1.00
O_3      -0.25602   0.07494    0.05917   1.00
C5       -0.20057   0.37832    0.03674   1.00
H2       -0.15481   0.39033    0.04610   1.00
C5       -0.23649   0.41437    0.04573   1.00
H2       -0.18358   0.39700    0.02098   1.00
H2       -0.23648   0.41012    0.06255   1.00
H2       -0.29083   0.38543    0.04084   1.00
C5       -0.20350   0.48973    0.03924   1.00
H2       -0.14811   0.51652    0.04279   1.00
H2       -0.22728   0.51564    0.04740   1.00
H2       -0.21082   0.49451    0.02267   1.00
C5       -0.36452   0.05961    0.06744   1.00
H2       -0.38436   0.00828    0.07439   1.00
H2       -0.37233   0.05180    0.05076   1.00
C5       -0.40290   0.09469    0.07566   1.00
H2       -0.45880   0.05974    0.07434   1.00
C5       0.67110    1.31165    0.87094   1.00
H2       0.63599    1.32159    0.88018   1.00
H2       0.65409    1.30841    0.85498   1.00
C5       0.74500    1.37139    0.87350   1.00
H2       0.75446    1.41496    0.86353   1.00
H2       0.78192    1.35430    0.86959   1.00
O_3      0.60631    0.97745    0.86557   1.00
C4       0.52269    1.01996    0.88469   1.00
C3c      0.54664    1.08723    0.87819   1.00
H1       0.54299    1.09732    0.86235   1.00
C3d      0.52703    1.00781    0.90544   1.00
C3       0.57641    1.14241    0.89185   1.00
O2       0.59101    1.20557    0.88486   1.00
C3       0.55783    1.06277    0.91902   1.00
H1       0.56222    1.05119    0.93466   1.00
C2       0.58300    1.13119    0.91266   1.00
C5       0.62271    0.93778    0.87839   1.00
H2       0.60901    0.88755    0.87151   1.00
H2       0.59595    0.92821    0.89327   1.00
C5       0.69924    0.97731    0.88195   1.00
H2       0.71320    1.02827    0.88830   1.00
H2       0.72542    0.98602    0.86702   1.00
C5       0.72121    0.93873    0.89639   1.00
H2       0.70699    0.88761    0.89022   1.00
H2       0.69693    0.93210    0.91153   1.00
H2       0.77747    0.96770    0.89846   1.00
C5       0.43872    0.90742    0.91702   1.00
C5       0.65928    1.24215    0.87801   1.00
H2       0.40727    0.90066    0.90332   1.00
H2       0.42572    0.93412    0.92891   1.00
H2       0.66686    1.21460    0.86515   1.00
H2       0.69668    1.24876    0.89013   1.00
H2       0.75461    1.39142    0.88938   1.00
H2       0.32301    0.77370    0.90954   1.00
H2       0.31714    0.80968    0.93359   1.00
C2       0.43871    0.85095    0.84354   1.00
C3       0.39645    0.87367    0.85212   1.00
O2       0.32645    0.83277    0.85157   1.00
C3       0.50922    0.88733    0.84810   1.00
H1       0.54322    0.87231    0.84136   1.00
C3a      0.42481    0.93038    0.86531   1.00
H1       0.39115    0.94474    0.87266   1.00
C3b      0.53688    0.94234    0.86172   1.00
C4       0.49463    0.96422    0.87048   1.00
O_3      0.50894    0.94324    0.91236   1.00
C5       0.29872    0.85511    0.83624   1.00
H2       0.31125    0.90886    0.83888   1.00
C5       0.22128    0.80813    0.83684   1.00
H2       0.31833    0.85185    0.82101   1.00
H2       0.20037    0.82497    0.84943   1.00
H2       0.21116    0.75612    0.84089   1.00
C5       0.18633    0.80664    0.81661   1.00
H2       0.20133    0.85952    0.81200   1.00
H2       0.12982    0.77662    0.81816   1.00
H2       0.20029    0.78173    0.80434   1.00
C5       0.42151    0.83741    0.92490   1.00
H2       0.44374    0.84358    0.94035   1.00
H2       0.44725    0.81723    0.91500   1.00
C5       0.34409    0.78743    0.92523   1.00
H2       0.33313    0.73944    0.93299   1.00
C5       -0.05508   0.60615    0.96132   1.00
H2       -0.10229   0.60597    0.95666   1.00
H2       -0.01273   0.65910    0.95885   1.00
C5       -0.05999   0.58678    0.98402   1.00
H2       -0.04670   0.63171    0.99385   1.00
H2       -0.02465   0.56727    0.98741   1.00
O_3      0.09206    0.48588    0.89206   1.00
C4       -0.02063   0.50327    0.88444   1.00
C3c      -0.02288   0.54232    0.90065   1.00
H1       0.01839    0.59401    0.90275   1.00
C3d      -0.07539   0.43636    0.88181   1.00
C3       -0.07753   0.51529    0.91452   1.00
O2       -0.08031   0.55904    0.92848   1.00
C3       -0.12924   0.40885    0.89582   1.00
H1       -0.16890   0.35651    0.89359   1.00
C2       -0.13196   0.44739    0.91242   1.00
C5       0.07922    0.41985    0.88707   1.00
H2       0.11791    0.42109    0.87636   1.00
H2       0.02781    0.38889    0.88004   1.00
C5       0.08197    0.38566    0.90659   1.00
H2       0.04465    0.38615    0.91751   1.00
H2       0.13369    0.41666    0.91338   1.00
C5       0.06609    0.31242    0.90263   1.00
H2       0.10287    0.31152    0.89163   1.00
H2       0.01356    0.28081    0.89651   1.00
H2       0.06982    0.28878    0.91700   1.00
C5       -0.09973   0.40355    0.84873   1.00
C5       -0.04837   0.55727    0.94671   1.00
H2       -0.06862   0.45674    0.84309   1.00
H2       -0.15356   0.39170    0.85055   1.00
H2       0.00650    0.57456    0.94390   1.00
H2       -0.07220   0.50492    0.95341   1.00
H2       -0.11313   0.54710    0.98821   1.00
H2       -0.06258   0.42280    0.80633   1.00
H2       -0.15432   0.37756    0.81026   1.00
C2       0.14769    0.57990    0.84313   1.00
C3       0.09340    0.59236    0.83956   1.00
O2       0.08501    0.61360    0.82071   1.00
C3       0.14641    0.54481    0.86103   1.00
H1       0.18804    0.53601    0.86447   1.00
C3a      0.03887    0.56827    0.85349   1.00
H1       -0.00415   0.57481    0.84996   1.00
C3b      0.09107    0.51902    0.87452   1.00
C4       0.03664    0.53053    0.87079   1.00
O_3      -0.07320   0.39410    0.86703   1.00
C5       0.10884    0.68430    0.82091   1.00
H2       0.08072    0.69744    0.83229   1.00
C5       0.09674    0.70353    0.79968   1.00
H2       0.16435    0.71375    0.82451   1.00
H2       0.04215    0.68922    0.79840   1.00
H2       0.10495    0.67116    0.78860   1.00
C5       0.14350    0.77977    0.79477   1.00
H2       0.13863    0.81131    0.80684   1.00
H2       0.12934    0.79291    0.77996   1.00
H2       0.19801    0.79304    0.79344   1.00
C5       -0.09748   0.35528    0.83308   1.00
H2       -0.13748   0.30225    0.83697   1.00
H2       -0.04737   0.35749    0.83441   1.00
C5       -0.10734   0.37369    0.81134   1.00
H2       -0.11254   0.33351    0.80062   1.00
C5       0.42134    0.38163    0.96715   1.00
H2       0.41205    0.32951    0.96398   1.00
H2       0.37060    0.37797    0.96641   1.00
C5       0.45243    0.40404    0.98859   1.00
H2       0.41194    0.38224    1.00041   1.00
H2       0.48007    0.46066    0.98976   1.00
O_3      0.53580    0.61484    0.88757   1.00
C4       0.49658    0.47600    0.88446   1.00
C3c      0.46315    0.44583    0.90272   1.00
H1       0.41587    0.44422    0.90645   1.00
C3d      0.55762    0.47670    0.87976   1.00
C3       0.49038    0.41828    0.91654   1.00
O2       0.45077    0.38231    0.93286   1.00
C3       0.58554    0.45048    0.89366   1.00
H1       0.63368    0.45433    0.88972   1.00
C2       0.55278    0.42046    0.91230   1.00
C5       0.60106    0.65825    0.87931   1.00
H2       0.60022    0.69344    0.86764   1.00
H2       0.62245    0.62825    0.87220   1.00
C5       0.64736    0.70069    0.89656   1.00
H2       0.64669    0.66551    0.90849   1.00
H2       0.62587    0.73089    0.90343   1.00
C5       0.72029    0.74782    0.88900   1.00
H2       0.72128    0.78276    0.87699   1.00
H2       0.74266    0.71761    0.88279   1.00
H2       0.75302    0.77949    0.90173   1.00
C5       0.57197    0.46539    0.84602   1.00
C5       0.46662    0.42608    0.94977   1.00
H2       0.51769    0.44813    0.84251   1.00
H2       0.57726    0.41963    0.84878   1.00
H2       0.45525    0.46761    0.94630   1.00
H2       0.52164    0.45080    0.95415   1.00
H2       0.48839    0.38509    0.99211   1.00
H2       0.53599    0.46847    0.80415   1.00
H2       0.57185    0.41334    0.80827   1.00
C2       0.42040    0.56746    0.84291   1.00
C3       0.39725    0.49695    0.84174   1.00
O2       0.36409    0.46044    0.82460   1.00
C3       0.46624    0.60570    0.85863   1.00
H1       0.48354    0.65940    0.86025   1.00
C3a      0.42142    0.46690    0.85578   1.00
H1       0.40624    0.41370    0.85398   1.00
C3b      0.49186    0.57611    0.87216   1.00
C4       0.46961    0.50624    0.87079   1.00
O_3      0.59514    0.51032    0.86273   1.00
C5       0.29316    0.42237    0.82806   1.00
H2       0.28076    0.38580    0.84088   1.00
C5       0.26038    0.38266    0.80857   1.00
H2       0.27227    0.45654    0.83158   1.00
H2       0.26659    0.33691    0.80816   1.00
H2       0.29024    0.41547    0.79557   1.00
C5       0.18450    0.36167    0.80660   1.00
H2       0.15653    0.33360    0.82044   1.00
H2       0.16106    0.32814    0.79317   1.00
H2       0.17807    0.40710    0.80438   1.00
C5       0.61542    0.50407    0.82779   1.00
H2       0.66731    0.51095    0.82985   1.00
H2       0.62133    0.55596    0.82771   1.00
C5       0.58358    0.46726    0.80769   1.00
H2       0.61984    0.49298    0.79500   1.00
C5       0.63699    0.39452    0.29344   1.00
H2       0.65701    0.36174    0.28777   1.00
H2       0.63575    0.38997    0.31023   1.00
C5       0.68550    0.46925    0.28694   1.00
H2       0.72998    0.49448    0.29738   1.00
H2       0.65777    0.49827    0.28703   1.00
O_3      0.28545    0.26085    0.29205   1.00
C4       0.35346    0.18936    0.28203   1.00
C3c      0.42089    0.23029    0.28875   1.00
H1       0.43115    0.24011    0.30478   1.00
C3d      0.34128    0.17640    0.26110   1.00
C3       0.47582    0.25991    0.27500   1.00
O2       0.54088    0.29234    0.28283   1.00
C3       0.39572    0.20686    0.24734   1.00
H1       0.38364    0.19742    0.23138   1.00
C2       0.46415    0.24901    0.25386   1.00
C5       0.23950    0.25626    0.27682   1.00
H2       0.18696    0.23683    0.28284   1.00
H2       0.23678    0.22189    0.26428   1.00
C5       0.26536    0.32749    0.26840   1.00
H2       0.31858    0.34766    0.26291   1.00
H2       0.26726    0.36119    0.28101   1.00
C5       0.21948    0.32674    0.25118   1.00
H2       0.16615    0.30621    0.25652   1.00
H2       0.21943    0.29499    0.23828   1.00
H2       0.23833    0.37944    0.24552   1.00
C5       0.25307    0.07033    0.25364   1.00
C5       0.56434    0.36275    0.28508   1.00
H2       0.25157    0.05140    0.26930   1.00
H2       0.28658    0.05839    0.24415   1.00
H2       0.53107    0.37061    0.29593   1.00
H2       0.56414    0.38762    0.27044   1.00
H2       0.70684    0.47187    0.27146   1.00
H2       0.13276    -0.05441   0.26575   1.00
H2       0.17602    -0.06604   0.24421   1.00
C2       0.18361    0.10421    0.32287   1.00
C3       0.21923    0.06909    0.31889   1.00
O2       0.19065    0.00099    0.32380   1.00
C3       0.20752    0.16899    0.31387   1.00
H1       0.18246    0.19795    0.31702   1.00
C3a      0.27610    0.09821    0.30577   1.00
H1       0.30042    0.06898    0.30197   1.00
C3b      0.26275    0.19683    0.30032   1.00
C4       0.29745    0.16139    0.29614   1.00
O_3      0.27548    0.14074    0.25358   1.00
C5       0.22000    -0.00651   0.34179   1.00
H2       0.27623    0.01557    0.34011   1.00
C5       0.18662    -0.08307   0.34599   1.00
H2       0.21028    0.01893    0.35480   1.00
H2       0.21123    -0.10450   0.33612   1.00
H2       0.13243    -0.10710   0.34104   1.00
C5       0.19103    -0.09934   0.36847   1.00
H2       0.24498    -0.07067   0.37359   1.00
H2       0.17145    -0.15486   0.37061   1.00
H2       0.15923    -0.08592   0.37830   1.00
C5       0.18120    0.03342    0.24492   1.00
H2       0.18439    0.04338    0.22830   1.00
H2       0.15208    0.05629    0.25165   1.00
C5       0.14451    -0.04369   0.24927   1.00
H2       0.09530    -0.06983   0.24093   1.00
C5       0.59650    0.37838    0.28635   1.00
H2       0.57456    0.38359    0.27185   1.00
H2       0.57134    0.39187    0.29850   1.00
C5       0.58031    0.30380    0.28887   1.00
H2       0.52763    0.27101    0.29476   1.00
H2       0.61717    0.30162    0.29958   1.00
O_3      0.91235    0.64731    0.31576   1.00
C4       0.83644    0.64691    0.28190   1.00
C3c      0.77097    0.59013    0.28440   1.00
H1       0.73977    0.58840    0.29705   1.00
C3d      0.87588    0.64859    0.26515   1.00
C3       0.74512    0.53450    0.27089   1.00
O2       0.67778    0.48472    0.27287   1.00
C3       0.85081    0.59271    0.25190   1.00
H1       0.88385    0.59525    0.23968   1.00
C2       0.78501    0.53456    0.25433   1.00
C5       0.98003    0.66574    0.31073   1.00
H2       1.01815    0.70935    0.32001   1.00
H2       0.99081    0.68007    0.29439   1.00
C5       0.98850    0.60434    0.31480   1.00
H2       0.94915    0.56023    0.30595   1.00
H2       0.97825    0.59089    0.33118   1.00
C5       1.06027    0.61924    0.30902   1.00
H2       1.09984    0.66354    0.31769   1.00
H2       1.06969    0.63036    0.29252   1.00
H2       1.06598    0.57432    0.31252   1.00
C5       0.94328    0.75487    0.25197   1.00
C5       0.67251    0.43154    0.28536   1.00
H2       0.91560    0.77637    0.26031   1.00
H2       0.91986    0.73810    0.23665   1.00
H2       0.69240    0.45144    0.30085   1.00
H2       0.70222    0.40806    0.27933   1.00
H2       0.58261    0.28135    0.27399   1.00
H2       1.00817    0.90143    0.25526   1.00
H2       0.99294    0.87192    0.22912   1.00
C2       0.92086    0.81408    0.32370   1.00
C3       0.87992    0.81327    0.30743   1.00
O2       0.88039    0.87215    0.30177   1.00
C3       0.93016    0.75722    0.32631   1.00
H1       0.95975    0.75549    0.33892   1.00
C3a      0.85101    0.75726    0.29399   1.00
H1       0.82304    0.75917    0.28095   1.00
C3b      0.90315    0.70262    0.31255   1.00
C4       0.86334    0.70236    0.29620   1.00
O_3      0.94253    0.70086    0.26286   1.00
C5       0.82163    0.87157    0.30916   1.00
H2       0.77415    0.82699    0.30314   1.00
C5       0.82539    0.93766    0.30198   1.00
H2       0.81996    0.86955    0.32605   1.00
H2       0.80858    0.93111    0.28586   1.00
H2       0.88009    0.97829    0.30216   1.00
C5       0.78243    0.95848    0.31512   1.00
H2       0.72918    0.91532    0.31607   1.00
H2       0.78183    1.00336    0.30846   1.00
H2       0.80407    0.97366    0.33074   1.00
C5       1.01744    0.81046    0.24951   1.00
H2       1.04205    0.79280    0.23829   1.00
H2       1.04393    0.81670    0.26427   1.00
C5       1.02416    0.87876    0.24289   1.00
H2       1.07820    0.91591    0.23920   1.00
C5       0.77155    0.39707    0.28782   1.00
H2       0.79999    0.42132    0.27368   1.00
H2       0.80854    0.42174    0.30040   1.00
C5       0.71117    0.41040    0.29006   1.00
H2       0.72871    0.46207    0.29645   1.00
H2       0.67163    0.37152    0.30023   1.00
O_3      0.73271    0.08231    0.31470   1.00
C4       0.81051    0.16360    0.28190   1.00
C3c      0.81651    0.22777    0.28491   1.00
H1       0.84388    0.25796    0.29797   1.00
C3d      0.77548    0.12551    0.26464   1.00
C3       0.78673    0.25357    0.27140   1.00
O2       0.80177    0.31999    0.27396   1.00
C3       0.74465    0.15048    0.25136   1.00
H1       0.71626    0.11839    0.23872   1.00
C2       0.74960    0.21495    0.25430   1.00
C5       0.68576    0.01472    0.30886   1.00
H2       0.69179    -0.02352   0.31791   1.00
H2       0.69166    0.00624    0.29249   1.00
C5       0.61449    0.00328    0.31240   1.00
H2       0.60911    0.04270    0.30380   1.00
H2       0.60896    0.01125    0.32881   1.00
C5       0.56002    -0.06852   0.30574   1.00
H2       0.56539    -0.10814   0.31416   1.00
H2       0.56399    -0.07572   0.28920   1.00
H2       0.50829    -0.07646   0.30885   1.00
C5       0.81921    0.06253    0.25127   1.00
C5       0.75135    0.32184    0.28615   1.00
H2       0.86725    0.09052    0.26012   1.00
H2       0.82681    0.08755    0.23616   1.00
H2       0.75037    0.30050    0.30149   1.00
H2       0.69902    0.29142    0.27956   1.00
H2       0.68774    0.40897    0.27500   1.00
H2       0.90452    0.00167    0.25465   1.00
H2       0.89236    0.01916    0.22855   1.00
C2       0.89330    0.07906    0.32365   1.00
C3       0.93442    0.12264    0.30795   1.00
O2       0.99457    0.12508    0.30268   1.00
C3       0.82600    0.06712    0.32574   1.00
H1       0.79382    0.03543    0.33792   1.00
C3a      0.90723    0.15154    0.29454   1.00
H1       0.93805    0.18163    0.28191   1.00
C3b      0.79841    0.09417    0.31199   1.00
C4       0.83900    0.13663    0.29620   1.00
O_3      0.76371    0.05993    0.26179   1.00
C5       1.05068    0.18399    0.31087   1.00
H2       1.05247    0.23133    0.30521   1.00
C5       1.11511    0.18353    0.30409   1.00
H2       1.04835    0.18361    0.32776   1.00
H2       1.12674    0.20231    0.28817   1.00
H2       1.10290    0.12939    0.30380   1.00
C5       1.17690    0.22649    0.31796   1.00
H2       1.18500    0.27894    0.31935   1.00
H2       1.22394    0.22961    0.31161   1.00
H2       1.16938    0.20318    0.33337   1.00
C5       0.80346    -0.01055   0.24817   1.00
H2       0.76265    -0.03494   0.23650   1.00
H2       0.78220    -0.03903   0.26259   1.00
C5       0.86718    -0.01400   0.24192   1.00
H2       0.85250    -0.06715   0.23775   1.00
C5       0.83885    0.63607    0.69513   1.00
H2       0.85651    0.59836    0.69582   1.00
H2       0.88574    0.68686    0.69407   1.00
C5       0.79393    0.62244    0.67607   1.00
H2       0.82607    0.64510    0.66233   1.00
H2       0.76031    0.64479    0.67809   1.00
O_3      0.75355    0.73141    0.78599   1.00
C4       0.81032    0.64616    0.78216   1.00
C3c      0.83313    0.65332    0.76203   1.00
H1       0.87377    0.70209    0.75680   1.00
C3d      0.75798    0.58193    0.78875   1.00
C3       0.80351    0.59839    0.74828   1.00
O2       0.83396    0.60691    0.72961   1.00
C3       0.72750    0.52747    0.77499   1.00
H1       0.68590    0.47984    0.78054   1.00
C2       0.74944    0.53403    0.75451   1.00
C5       0.69372    0.70197    0.79790   1.00
H2       0.69703    0.73565    0.81070   1.00
H2       0.68307    0.65200    0.80433   1.00
C5       0.63493    0.69066    0.78424   1.00
H2       0.63283    0.65859    0.77113   1.00
H2       0.64582    0.74094    0.77806   1.00
C5       0.56719    0.65641    0.79586   1.00
H2       0.56910    0.68794    0.80905   1.00
H2       0.55511    0.60518    0.80143   1.00
H2       0.52506    0.64994    0.78575   1.00
C5       0.76805    0.55783    0.82173   1.00
C5       0.80275    0.62931    0.71535   1.00
H2       0.82181    0.60008    0.82272   1.00
H2       0.76787    0.51014    0.81735   1.00
H2       0.80949    0.67966    0.72006   1.00
H2       0.74674    0.59307    0.71383   1.00
H2       0.76178    0.56656    0.67302   1.00
H2       0.82686    0.60099    0.86162   1.00
H2       0.79945    0.51204    0.85652   1.00
C2       0.89303    0.81316    0.82403   1.00
C3       0.92452    0.77330    0.82158   1.00
O2       0.97052    0.77601    0.83580   1.00
C3       0.83622    0.79857    0.81167   1.00
H1       0.81206    0.82925    0.81281   1.00
C3a      0.89788    0.71933    0.80742   1.00
H1       0.92015    0.68686    0.80655   1.00
C3b      0.80852    0.74351    0.79807   1.00
C4       0.83923    0.70327    0.79588   1.00
O_3      0.73020    0.57351    0.80795   1.00
C5       1.03780    0.81661    0.82861   1.00
H2       1.04594    0.79574    0.81420   1.00
C5       1.08540    0.81611    0.84501   1.00
H2       1.04971    0.87004    0.82588   1.00
H2       1.08639    0.76757    0.84376   1.00
H2       1.06210    0.81493    0.85999   1.00
C5       1.15824    0.87789    0.84365   1.00
H2       1.17864    0.88136    0.82810   1.00
H2       1.19268    0.87279    0.85468   1.00
H2       1.15916    0.92648    0.84744   1.00
C5       0.73497    0.54779    0.84250   1.00
H2       0.68574    0.49866    0.84242   1.00
H2       0.72246    0.58904    0.84486   1.00
C5       0.78171    0.54896    0.85964   1.00
H2       0.75341    0.53446    0.87424   1.00
C5       0.58602    0.43492    0.77318   1.00
H2       0.62441    0.41838    0.77481   1.00
H2       0.58097    0.45263    0.78846   1.00
C5       0.61192    0.49406    0.75769   1.00
H2       0.64842    0.54347    0.76496   1.00
H2       0.56821    0.49770    0.75143   1.00
O_3      0.24315    0.18431    0.77524   1.00
C4       0.35375    0.16298    0.78214   1.00
C3c      0.41096    0.22806    0.78480   1.00
H1       0.41320    0.25881    0.79764   1.00
C3d      0.35228    0.12335    0.76547   1.00
C3       0.46550    0.25488    0.77089   1.00
O2       0.52321    0.31522    0.77580   1.00
C3       0.40590    0.15041    0.75138   1.00
H1       0.40141    0.11910    0.73845   1.00
C2       0.46381    0.21644    0.75372   1.00
C5       0.19791    0.14029    0.76029   1.00
H2       0.14437    0.11093    0.76591   1.00
H2       0.21340    0.10321    0.75498   1.00
C5       0.20018    0.18400    0.74249   1.00
H2       0.25400    0.21478    0.73724   1.00
H2       0.18402    0.22039    0.74792   1.00
C5       0.15406    0.13978    0.72517   1.00
H2       0.10032    0.10854    0.73034   1.00
H2       0.17159    0.10508    0.71927   1.00
H2       0.15522    0.17269    0.71248   1.00
C5       0.29903    0.00916    0.77191   1.00
C5       0.51958    0.37062    0.76728   1.00
H2       0.30010    0.01692    0.78859   1.00
H2       0.34526    0.00659    0.76748   1.00
H2       0.47488    0.37261    0.77360   1.00
H2       0.51375    0.36678    0.75041   1.00
H2       0.64019    0.48662    0.74496   1.00
H2       0.21069    -0.10710   0.79673   1.00
H2       0.27185    -0.11981   0.78230   1.00
C2       0.18299    0.08172    0.82262   1.00
C3       0.23952    0.07350    0.82696   1.00
O2       0.23401    0.02592    0.84104   1.00
C3       0.18595    0.11999    0.80529   1.00
H1       0.14427    0.12871    0.80184   1.00
C3a      0.29626    0.10177    0.81379   1.00
H1       0.33742    0.09172    0.81668   1.00
C3b      0.24149    0.14617    0.79187   1.00
C4       0.29719    0.13706    0.79604   1.00
O_3      0.29497    0.06115    0.76132   1.00
C5       0.26455    0.05825    0.85951   1.00
H2       0.31973    0.09638    0.85741   1.00
C5       0.25738    0.00250    0.87412   1.00
H2       0.23853    0.08467    0.86603   1.00
H2       0.29760    -0.01041   0.87046   1.00
H2       0.20752    -0.04405   0.87089   1.00
C5       0.26178    0.02320    0.89659   1.00
H2       0.30935    0.07256    0.89918   1.00
H2       0.26213    -0.01611   0.90666   1.00
H2       0.21675    0.02790    0.90117   1.00
C5       0.23576    -0.05822   0.76660   1.00
H2       0.24070    -0.07161   0.75068   1.00
H2       0.19084    -0.05058   0.76706   1.00
C5       0.22499    -0.11571   0.78126   1.00
H2       0.18281    -0.16531   0.77572   1.00
C5       0.57554    0.17849    0.77941   1.00
H2       0.59770    0.23469    0.77952   1.00
H2       0.56200    0.16180    0.79541   1.00
C5       0.51099    0.14549    0.76590   1.00
H2       0.46606    0.14024    0.77437   1.00
H2       0.50003    0.09415    0.76077   1.00
O_3      0.79994    0.05258    0.77852   1.00
C4       0.83710    0.19077    0.78212   1.00
C3c      0.77642    0.19113    0.78620   1.00
H1       0.74919    0.16916    0.80017   1.00
C3d      0.87232    0.22054    0.76397   1.00
C3       0.74944    0.21877    0.77232   1.00
O2       0.69459    0.22483    0.77844   1.00
C3       0.84490    0.24693    0.74994   1.00
H1       0.87245    0.26704    0.73591   1.00
C2       0.78321    0.24704    0.75373   1.00
C5       0.83548    0.04109    0.76284   1.00
H2       0.86223    0.01410    0.76836   1.00
H2       0.87406    0.09007    0.75572   1.00
C5       0.78359    -0.00312   0.74692   1.00
H2       0.75553    0.02296    0.74181   1.00
H2       0.74572    -0.05212   0.75415   1.00
C5       0.81839    -0.01614   0.72890   1.00
H2       0.84692    -0.04174   0.73391   1.00
H2       0.85448    0.03258    0.72123   1.00
H2       0.77952    -0.04976   0.71763   1.00
C5       0.98807    0.27306    0.76681   1.00
C5       0.63319    0.16664    0.77234   1.00
H2       0.98612    0.27250    0.78367   1.00
H2       0.99431    0.32246    0.76131   1.00
H2       0.62840    0.11999    0.77965   1.00
H2       0.63043    0.15847    0.75555   1.00
H2       0.51731    0.17783    0.75235   1.00
H2       1.10873    0.29679    0.78857   1.00
H2       1.12361    0.36798    0.77241   1.00
C2       0.91764    0.10069    0.82264   1.00
C3       0.93412    0.16909    0.82539   1.00
O2       0.98835    0.21226    0.83753   1.00
C3       0.87169    0.06242    0.80694   1.00
H1       0.85667    0.00943    0.80477   1.00
C3a      0.90614    0.19793    0.81225   1.00
H1       0.92228    0.25143    0.81383   1.00
C3b      0.84567    0.09187    0.79350   1.00
C4       0.86292    0.16017    0.79606   1.00
O_3      0.92943    0.21689    0.75852   1.00
C5       0.96466    0.22038    0.85654   1.00
H2       0.93021    0.24211    0.85483   1.00
C5       1.02743    0.26958    0.86890   1.00
H2       0.93651    0.17068    0.86466   1.00
H2       1.04409    0.32258    0.86387   1.00
H2       1.06935    0.25950    0.86486   1.00
C5       1.01444    0.26243    0.89197   1.00
H2       0.96909    0.26728    0.89555   1.00
H2       1.05921    0.30272    0.90034   1.00
H2       1.00616    0.21235    0.89768   1.00
C5       1.04951    0.26758    0.76013   1.00
H2       1.05828    0.27991    0.74367   1.00
H2       1.03667    0.21350    0.76186   1.00
C5       1.11371    0.31465    0.77255   1.00
H2       1.15884    0.31469    0.76591   1.00
C5       -0.05151   0.34730    0.46266   1.00
H2       -0.06441   0.38220    0.47086   1.00
H2       0.00395    0.36800    0.46510   1.00
C5       -0.09287   0.27470    0.47170   1.00
H2       -0.06827   0.27005    0.48576   1.00
H2       -0.09656   0.23630    0.46046   1.00
O_3      0.00250    0.39228    0.35850   1.00
C4       -0.02012   0.47730    0.38463   1.00
C3c      -0.01291   0.45861    0.40439   1.00
H1       0.03600    0.46644    0.40935   1.00
C3d      -0.08404   0.46758    0.37857   1.00
C3       -0.06846   0.42881    0.41792   1.00
O2       -0.05562   0.41960    0.43773   1.00
C3       -0.13978   0.43673    0.39187   1.00
H1       -0.18837   0.42808    0.38630   1.00
C2       -0.13355   0.41684    0.41183   1.00
C5       -0.04197   0.36993    0.34166   1.00
H2       -0.01387   0.38206    0.32697   1.00
H2       -0.07487   0.39368    0.34157   1.00
C5       -0.08688   0.29301    0.34332   1.00
H2       -0.11350   0.28077    0.35825   1.00
H2       -0.05356   0.26981    0.34321   1.00
C5       -0.13866   0.26465    0.32591   1.00
H2       -0.11243   0.27711    0.31095   1.00
H2       -0.17349   0.28600    0.32642   1.00
H2       -0.17001   0.20822    0.32713   1.00
C5       -0.07774   0.54923    0.35697   1.00
C5       -0.06560   0.35321    0.44026   1.00
H2       -0.02278   0.58409    0.36027   1.00
H2       -0.10867   0.56194    0.36737   1.00
H2       -0.02938   0.34623    0.43045   1.00
H2       -0.11839   0.31254    0.43610   1.00
H2       -0.14535   0.26279    0.47613   1.00
H2       -0.00133   0.66089    0.32928   1.00
H2       -0.07218   0.66430    0.34104   1.00
C2       0.14485    0.56099    0.34206   1.00
C3       0.13663    0.60428    0.35576   1.00
O2       0.16972    0.67373    0.35245   1.00
C3       0.09963    0.48986    0.34350   1.00
H1       0.10564    0.45522    0.33359   1.00
C3a      0.08307    0.57614    0.37005   1.00
H1       0.07508    0.61025    0.37964   1.00
C3b      0.04510    0.46223    0.35729   1.00
C4       0.03635    0.50541    0.37068   1.00
O_3      -0.09513   0.48031    0.35881   1.00
C5       0.22715    0.70710    0.36524   1.00
H2       0.21220    0.69732    0.38157   1.00
C5       0.26018    0.78355    0.36092   1.00
H2       0.26455    0.68990    0.36205   1.00
H2       0.23084    0.80357    0.36911   1.00
H2       0.25391    0.78955    0.34442   1.00
C5       0.33612    0.82377    0.36695   1.00
H2       0.34195    0.81292    0.38303   1.00
H2       0.35677    0.87961    0.36519   1.00
H2       0.36772    0.81028    0.35704   1.00
C5       -0.09193   0.56049    0.33516   1.00
H2       -0.14817   0.53472    0.33296   1.00
H2       -0.07268   0.53469    0.32493   1.00
C5       -0.05801   0.63677    0.32983   1.00
H2       -0.07520   0.64312    0.31461   1.00
C5       0.38845    1.05955    0.45966   1.00
H2       0.43356    1.06955    0.46888   1.00
H2       0.35061    1.00470    0.46185   1.00
C5       0.35949    1.10449    0.46742   1.00
H2       0.32669    1.08115    0.48100   1.00
H2       0.32880    1.11072    0.45531   1.00
O_3      0.39791    1.00420    0.35616   1.00
C4       0.49740    1.02008    0.38465   1.00
C3c      0.46784    1.01447    0.40379   1.00
H1       0.42384    0.96683    0.40827   1.00
C3d      0.55529    1.08231    0.37923   1.00
C3       0.49368    1.07009    0.41730   1.00
O2       0.46740    1.05840    0.43665   1.00
C3       0.58036    1.13817    0.39248   1.00
H1       0.62337    1.18557    0.38738   1.00
C2       0.55062    1.13361    0.41181   1.00
C5       0.42587    1.04856    0.33941   1.00
H2       0.41164    1.02063    0.32468   1.00
H2       0.48265    1.07859    0.34036   1.00
C5       0.39800    1.09722    0.33976   1.00
H2       0.41055    1.12374    0.35470   1.00
H2       0.34134    1.06675    0.33861   1.00
C5       0.42784    1.14904    0.32239   1.00
H2       0.41591    1.12288    0.30742   1.00
H2       0.48418    1.18109    0.32391   1.00
H2       0.40574    1.18319    0.32262   1.00
C5       0.63177    1.07048    0.35964   1.00
C5       0.41340    1.07267    0.43765   1.00
H2       0.60785    1.01511    0.36305   1.00
H2       0.67369    1.09939    0.37075   1.00
H2       0.37140    1.03826    0.42720   1.00
H2       0.42969    1.12636    0.43321   1.00
H2       0.40127    1.15588    0.47226   1.00
H2       0.66602    0.98901    0.33377   1.00
H2       0.73991    1.05703    0.34655   1.00
C2       0.41655    0.85525    0.34203   1.00
C3       0.46372    0.86015    0.35688   1.00
O2       0.49697    0.82341    0.35487   1.00
C3       0.39459    0.90379    0.34231   1.00
H1       0.35720    0.90041    0.33148   1.00
C3a      0.48894    0.91374    0.37116   1.00
H1       0.52792    0.91906    0.38169   1.00
C3b      0.42140    0.95827    0.35611   1.00
C4       0.46907    0.96369    0.37067   1.00
O_3      0.58313    1.09206    0.35999   1.00
C5       0.46707    0.76578    0.36767   1.00
H2       0.46965    0.78089    0.38391   1.00
C5       0.50733    0.72860    0.36482   1.00
H2       0.41264    0.73097    0.36355   1.00
H2       0.55511    0.75548    0.37389   1.00
H2       0.52305    0.73420    0.34860   1.00
C5       0.46634    0.65266    0.37080   1.00
H2       0.44651    0.64784    0.38649   1.00
H2       0.49903    0.62885    0.37015   1.00
H2       0.42288    0.62316    0.36015   1.00
C5       0.66183    1.08332    0.33836   1.00
H2       0.69557    1.13929    0.33629   1.00
H2       0.61933    1.06656    0.32725   1.00
C5       0.70122    1.04529    0.33448   1.00
H2       0.72827    1.06138    0.31970   1.00
C5       0.67052    0.61123    0.45976   1.00
H2       0.63541    0.56603    0.46895   1.00
H2       0.65339    0.64898    0.46197   1.00
C5       0.74438    0.64027    0.46757   1.00
H2       0.75369    0.67297    0.48116   1.00
H2       0.78136    0.67110    0.45548   1.00
O_3      0.60637    0.60237    0.35623   1.00
C4       0.52269    0.50260    0.38465   1.00
C3c      0.54647    0.53205    0.40381   1.00
H1       0.54269    0.57595    0.40830   1.00
C3d      0.52720    0.44482    0.37921   1.00
C3       0.57625    0.50620    0.41732   1.00
O2       0.59067    0.53235    0.43669   1.00
C3       0.55800    0.41976    0.39246   1.00
H1       0.56253    0.37685    0.38734   1.00
C2       0.58300    0.44939    0.41181   1.00
C5       0.62296    0.57459    0.33948   1.00
H2       0.60931    0.58888    0.32475   1.00
H2       0.59630    0.51781    0.34039   1.00
C5       0.69951    0.60261    0.33987   1.00
H2       0.71342    0.59000    0.35481   1.00
H2       0.72560    0.65927    0.33876   1.00
C5       0.72170    0.57297    0.32249   1.00
H2       0.70754    0.58496    0.30753   1.00
H2       0.69750    0.51663    0.32399   1.00
H2       0.77797    0.59517    0.32276   1.00
C5       0.43910    0.36837    0.35955   1.00
C5       0.65888    0.58645    0.43774   1.00
H2       0.40754    0.39216    0.36296   1.00
H2       0.42610    0.32639    0.37064   1.00
H2       0.66646    0.62849    0.42731   1.00
H2       0.69639    0.57029    0.43330   1.00
H2       0.75407    0.59853    0.47239   1.00
H2       0.32351    0.33408    0.33362   1.00
H2       0.31771    0.26017    0.34637   1.00
C2       0.43872    0.58346    0.34203   1.00
C3       0.39642    0.53615    0.35685   1.00
O2       0.32643    0.50279    0.35479   1.00
C3       0.50925    0.60556    0.34234   1.00
H1       0.54328    0.64306    0.33154   1.00
C3a      0.42477    0.51092    0.37113   1.00
H1       0.39109    0.47183    0.38163   1.00
C3b      0.53692    0.57874    0.35615   1.00
C4       0.49463    0.53093    0.37067   1.00
O_3      0.50929    0.41711    0.35995   1.00
C5       0.29852    0.53250    0.36760   1.00
H2       0.31095    0.52984    0.38384   1.00
C5       0.22109    0.49213    0.36470   1.00
H2       0.31805    0.58694    0.36351   1.00
H2       0.20021    0.44429    0.37373   1.00
H2       0.21111    0.47652    0.34847   1.00
C5       0.18597    0.53295    0.37068   1.00
H2       0.20084    0.55269    0.38639   1.00
H2       0.12948    0.50017    0.37000   1.00
H2       0.19992    0.57647    0.36005   1.00
C5       0.42208    0.33845    0.33825   1.00
H2       0.44442    0.30482    0.33618   1.00
H2       0.44783    0.38104    0.32717   1.00
C5       0.34469    0.29896    0.33433   1.00
H2       0.33388    0.27202    0.31953   1.00
C5       0.30865    0.38073    0.29755   1.00
H2       0.35821    0.42609    0.29352   1.00
H2       0.31622    0.33614    0.29590   1.00
C5       0.29034    0.38716    0.31975   1.00
H2       0.31764    0.37127    0.33054   1.00
H2       0.23442    0.35461    0.32217   1.00
O_3      0.05594    0.24690    0.22347   1.00
C4       0.19061    0.35394    0.21779   1.00
C3c      0.22698    0.35352    0.23499   1.00
H1       0.23349    0.31012    0.23788   1.00
C3d      0.18355    0.41141    0.21416   1.00
C3       0.25456    0.40823    0.24884   1.00
O2       0.29645    0.40794    0.26392   1.00
C3       0.20982    0.46539    0.22812   1.00
H1       0.20105    0.50729    0.22507   1.00
C2       0.24609    0.46546    0.24571   1.00
C5       0.00693    0.26394    0.21696   1.00
H2       -0.02959   0.22648    0.20580   1.00
H2       0.03180    0.31553    0.20982   1.00
C5       -0.03283   0.26403    0.23551   1.00
H2       0.00387    0.30004    0.24690   1.00
H2       -0.05795   0.21213    0.24240   1.00
C5       -0.08585   0.28452    0.22988   1.00
H2       -0.12238   0.24905    0.21841   1.00
H2       -0.06063   0.33726    0.22365   1.00
H2       -0.11541   0.28284    0.24355   1.00
C5       0.18419    0.43673    0.18064   1.00
C5       0.25792    0.37759    0.28164   1.00
H2       0.20428    0.40289    0.17599   1.00
H2       0.22804    0.48940    0.18286   1.00
H2       0.21842    0.32352    0.27856   1.00
H2       0.23089    0.40438    0.28728   1.00
H2       0.30628    0.44119    0.32360   1.00
H2       0.17324    0.39903    0.13838   1.00
H2       0.22378    0.49060    0.14232   1.00
C2       0.09900    0.18593    0.17637   1.00
C3       0.16778    0.23721    0.17384   1.00
O2       0.20080    0.24350    0.15570   1.00
C3       0.06288    0.18994    0.19333   1.00
H1       0.01072    0.15057    0.19599   1.00
C3a      0.19805    0.29160    0.18782   1.00
H1       0.24950    0.33246    0.18503   1.00
C3b      0.09246    0.24522    0.20684   1.00
C4       0.16049    0.29670    0.20413   1.00
O_3      0.14387    0.41215    0.19830   1.00
C5       0.24396    0.21547    0.15741   1.00
H2       0.28320    0.24174    0.16947   1.00
C5       0.27938    0.22543    0.13689   1.00
H2       0.21412    0.16000    0.16103   1.00
H2       0.32230    0.27897    0.13596   1.00
H2       0.24219    0.21972    0.12491   1.00
C5       0.30525    0.17489    0.13335   1.00
H2       0.33799    0.17747    0.14626   1.00
H2       0.33561    0.18736    0.11910   1.00
H2       0.26196    0.12148    0.13166   1.00
C5       0.13888    0.43784    0.16376   1.00
H2       0.12850    0.48019    0.16680   1.00
H2       0.08896    0.38949    0.16450   1.00
C5       0.17131    0.44569    0.14269   1.00
H2       0.14040    0.45345    0.13103   1.00
C5       0.39316    0.57888    0.21916   1.00
H2       0.40120    0.56464    0.23461   1.00
H2       0.41071    0.55289    0.20848   1.00
C5       0.31643    0.55345    0.21596   1.00
H2       0.28842    0.49842    0.21181   1.00
H2       0.30969    0.58327    0.20366   1.00
O_3      0.63838    0.89425    0.18119   1.00
C4       0.64695    0.83656    0.21811   1.00
C3c      0.59513    0.76789    0.21744   1.00
H1       0.59736    0.73419    0.20624   1.00
C3d      0.64359    0.87939    0.23301   1.00
C3       0.53941    0.74187    0.23091   1.00
O2       0.49522    0.67256    0.23098   1.00
C3       0.58751    0.85395    0.24619   1.00
H1       0.58592    0.88931    0.25689   1.00
C2       0.53429    0.78483    0.24558   1.00
C5       0.64938    0.96098    0.18354   1.00
H2       0.69083    0.99835    0.17348   1.00
H2       0.66295    0.97879    0.19954   1.00
C5       0.58352    0.95943    0.17796   1.00
H2       0.54170    0.92070    0.18762   1.00
H2       0.57080    0.94220    0.16191   1.00
C5       0.59027    1.02977    0.18080   1.00
H2       0.63226    1.06880    0.17130   1.00
H2       0.60062    1.04598    0.19696   1.00
H2       0.54215    1.02799    0.17622   1.00
C5       0.74731    0.96011    0.24513   1.00
C5       0.43987    0.65627    0.21780   1.00
H2       0.77357    0.93423    0.23850   1.00
H2       0.73230    0.94198    0.26105   1.00
H2       0.45862    0.67148    0.20195   1.00
H2       0.41128    0.68294    0.22202   1.00
H2       0.29223    0.55819    0.23018   1.00
H2       0.89410    1.03762    0.24181   1.00
H2       0.86448    1.02941    0.26784   1.00
C2       0.81360    0.92054    0.17613   1.00
C3       0.81761    0.88862    0.19405   1.00
O2       0.87968    0.89869    0.20078   1.00
C3       0.75242    0.92088    0.17204   1.00
H1       0.74708    0.94334    0.15820   1.00
C3a      0.76186    0.85969    0.20759   1.00
H1       0.76718    0.83891    0.22179   1.00
C3b      0.69791    0.89402    0.18584   1.00
C4       0.70237    0.86324    0.20380   1.00
O_3      0.69050    0.94849    0.23333   1.00
C5       0.88646    0.84161    0.19604   1.00
H2       0.84518    0.79426    0.20325   1.00
C5       0.95570    0.85620    0.20425   1.00
H2       0.88476    0.83357    0.17932   1.00
H2       0.95067    0.84578    0.22085   1.00
H2       0.99183    0.91185    0.20243   1.00
C5       0.98322    0.81433    0.19352   1.00
H2       0.94425    0.75926    0.19410   1.00
H2       1.03060    0.82198    0.20101   1.00
H2       0.99677    0.83051    0.17736   1.00
C5       0.79678    1.03665    0.24536   1.00
H2       0.77491    1.06125    0.25506   1.00
H2       0.80028    1.05647    0.22968   1.00
C5       0.86800    1.05405    0.25294   1.00
H2       0.90048    1.11008    0.25492   1.00
C5       0.39706    0.77154    0.21218   1.00
H2       0.42132    0.79999    0.22632   1.00
H2       0.42174    0.80854    0.19959   1.00
C5       0.41040    0.71117    0.20994   1.00
H2       0.46207    0.72870    0.20355   1.00
H2       0.37152    0.67163    0.19977   1.00
O_3      0.08231    0.73271    0.18530   1.00
C4       0.16360    0.81051    0.21810   1.00
C3c      0.22777    0.81651    0.21509   1.00
H1       0.25796    0.84388    0.20203   1.00
C3d      0.12551    0.77548    0.23536   1.00
C3       0.25357    0.78673    0.22860   1.00
O2       0.31999    0.80176    0.22604   1.00
C3       0.15048    0.74465    0.24864   1.00
H1       0.11840    0.71626    0.26128   1.00
C2       0.21495    0.74960    0.24570   1.00
C5       0.01472    0.68576    0.19114   1.00
H2       -0.02352   0.69179    0.18209   1.00
H2       0.00624    0.69166    0.20751   1.00
C5       0.00328    0.61449    0.18760   1.00
H2       0.04270    0.60911    0.19620   1.00
H2       0.01125    0.60896    0.17119   1.00
C5       -0.06853   0.56002    0.19426   1.00
H2       -0.10815   0.56539    0.18584   1.00
H2       -0.07572   0.56400    0.21080   1.00
H2       -0.07646   0.50829    0.19115   1.00
C5       0.06253    0.81921    0.24873   1.00
C5       0.32183    0.75135    0.21385   1.00
H2       0.09052    0.86726    0.23988   1.00
H2       0.08755    0.82681    0.26384   1.00
H2       0.30050    0.75037    0.19851   1.00
H2       0.29141    0.69902    0.22044   1.00
H2       0.40897    0.68774    0.22500   1.00
H2       0.00167    0.90452    0.24535   1.00
H2       0.01916    0.89236    0.27145   1.00
C2       0.07906    0.89330    0.17635   1.00
C3       0.12264    0.93442    0.19205   1.00
O2       0.12508    0.99457    0.19732   1.00
C3       0.06712    0.82600    0.17426   1.00
H1       0.03543    0.79382    0.16208   1.00
C3a      0.15154    0.90723    0.20546   1.00
H1       0.18163    0.93805    0.21809   1.00
C3b      0.09417    0.79841    0.18801   1.00
C4       0.13663    0.83900    0.20380   1.00
O_3      0.05993    0.76371    0.23821   1.00
C5       0.18399    1.05068    0.18913   1.00
H2       0.23133    1.05247    0.19479   1.00
C5       0.18353    1.11511    0.19591   1.00
H2       0.18361    1.04835    0.17224   1.00
H2       0.20231    1.12674    0.21182   1.00
H2       0.12939    1.10290    0.19620   1.00
C5       0.22649    1.17690    0.18204   1.00
H2       0.27894    1.18499    0.18065   1.00
H2       0.22961    1.22394    0.18839   1.00
H2       0.20318    1.16938    0.16663   1.00
C5       -0.01055   0.80346    0.25183   1.00
H2       -0.03494   0.76265    0.26350   1.00
H2       -0.03903   0.78220    0.23741   1.00
C5       -0.01400   0.86718    0.25808   1.00
H2       -0.06715   0.85250    0.26225   1.00
C5       1.03507    0.60035    0.53105   1.00
H2       1.07579    0.65403    0.53349   1.00
H2       0.98628    0.60088    0.53116   1.00
C5       1.04574    0.57522    0.51028   1.00
H2       1.02517    0.59271    0.49776   1.00
H2       1.01957    0.51852    0.51010   1.00
O_3      0.92694    0.38304    0.61452   1.00
C4       1.02054    0.52403    0.61553   1.00
C3c      1.01541    0.54937    0.59657   1.00
H1       0.96827    0.54716    0.59228   1.00
C3d      1.08274    0.52828    0.62094   1.00
C3       1.07026    0.57691    0.58277   1.00
O2       1.06435    0.60819    0.56561   1.00
C3       1.13702    0.55448    0.60708   1.00
H1       1.18289    0.55448    0.61161   1.00
C2       1.13245    0.57964    0.58775   1.00
C5       0.95221    0.34426    0.62402   1.00
H2       0.91723    0.31020    0.63608   1.00
H2       1.00315    0.37795    0.63102   1.00
C5       0.95918    0.30033    0.60785   1.00
H2       0.99259    0.33422    0.59553   1.00
H2       0.90793    0.26646    0.60111   1.00
C5       0.98878    0.25809    0.61679   1.00
H2       0.95591    0.22447    0.62921   1.00
H2       1.04093    0.29189    0.62290   1.00
H2       0.99209    0.22521    0.60485   1.00
C5       1.10807    0.54737    0.65463   1.00
C5       1.03863    0.56092    0.54943   1.00
H2       1.06872    0.56219    0.65730   1.00
H2       1.15774    0.59432    0.65139   1.00
H2       0.98676    0.51805    0.55326   1.00
H2       1.07155    0.53829    0.54599   1.00
H2       1.10115    0.59647    0.50697   1.00
H2       1.06751    0.54983    0.69602   1.00
H2       1.15776    0.60821    0.69168   1.00
C2       0.85318    0.43272    0.65718   1.00
C3       0.89738    0.50403    0.65725   1.00
O2       0.89825    0.54271    0.67354   1.00
C3       0.86370    0.39338    0.64248   1.00
H1       0.82970    0.33890    0.64169   1.00
C3a      0.95149    0.53390    0.64317   1.00
H1       0.98719    0.58803    0.64416   1.00
C3b      0.91885    0.42296    0.62892   1.00
C4       0.96337    0.49371    0.62921   1.00
O_3      1.08877    0.49942    0.63876   1.00
C5       0.86192    0.57654    0.66881   1.00
H2       0.88459    0.61091    0.65544   1.00
C5       0.86623    0.61899    0.68741   1.00
H2       0.80742    0.53927    0.66546   1.00
H2       0.91682    0.66661    0.68735   1.00
H2       0.86519    0.58969    0.70111   1.00
C5       0.80824    0.63593    0.68825   1.00
H2       0.80667    0.66032    0.67379   1.00
H2       0.81630    0.67149    0.70098   1.00
H2       0.75772    0.58914    0.69092   1.00
C5       1.11530    0.51391    0.67377   1.00
H2       1.16219    0.50990    0.67240   1.00
H2       1.07128    0.46088    0.67454   1.00
C5       1.11779    0.55357    0.69303   1.00
H2       1.13017    0.53193    0.70641   1.00
C5       0.57955    -0.04006   0.53299   1.00
H2       0.58857    -0.08304   0.53621   1.00
H2       0.63037    0.00689    0.53378   1.00
C5       0.54878    -0.04861   0.51150   1.00
H2       0.58944    -0.03005   0.49973   1.00
H2       0.52136    -0.01943   0.51027   1.00
O_3      0.46478    0.07946    0.61229   1.00
C4       0.50342    -0.02057   0.61554   1.00
C3c      0.53704    -0.01744   0.59733   1.00
H1       0.58447    0.02811    0.59364   1.00
C3d      0.44218    -0.08077   0.62019   1.00
C3       0.50982    -0.07222   0.58351   1.00
O2       0.54958    -0.06875   0.56726   1.00
C3       0.41427    -0.13490   0.60628   1.00
H1       0.36598    -0.17908   0.61018   1.00
C2       0.44723    -0.13230   0.58770   1.00
C5       0.39946    0.05785    0.62046   1.00
H2       0.40029    0.09395    0.63211   1.00
H2       0.37779    0.00644    0.62758   1.00
C5       0.35349    0.05419    0.60314   1.00
H2       0.35417    0.01961    0.59123   1.00
H2       0.37526    0.10592    0.59627   1.00
C5       0.28050    0.02866    0.61060   1.00
H2       0.27950    0.06269    0.62259   1.00
H2       0.25786    -0.02393   0.61682   1.00
H2       0.24802    0.02776    0.59782   1.00
C5       0.42727    -0.10644   0.65393   1.00
C5       0.53412    -0.04069   0.55029   1.00
H2       0.48155    -0.06958   0.65749   1.00
H2       0.42180    -0.15758   0.65119   1.00
H2       0.54566    0.01227    0.55374   1.00
H2       0.47915    -0.07082   0.54585   1.00
H2       0.51271    -0.10348   0.50797   1.00
H2       0.46276    -0.06747   0.69582   1.00
H2       0.42663    -0.15849   0.69172   1.00
C2       0.57961    0.14709    0.65709   1.00
C3       0.60247    0.09952    0.65833   1.00
O2       0.63530    0.09600    0.67553   1.00
C3       0.53406    0.13968    0.64130   1.00
H1       0.51698    0.17625    0.63961   1.00
C3a      0.57831    0.04528    0.64429   1.00
H1       0.59325    0.00711    0.64615   1.00
C3b      0.50843    0.08448    0.62776   1.00
C4       0.53039    0.03664    0.62921   1.00
O_3      0.40448    -0.08452   0.63716   1.00
C5       0.70627    0.12861    0.67216   1.00
H2       0.71871    0.10434    0.65937   1.00
C5       0.73867    0.12152    0.69171   1.00
H2       0.72741    0.18371    0.66863   1.00
H2       0.73223    0.06946    0.69214   1.00
H2       0.70871    0.12460    0.70465   1.00
C5       0.81460    0.17618    0.69375   1.00
H2       0.84270    0.17596    0.67996   1.00
H2       0.83775    0.16596    0.70723   1.00
H2       0.82122    0.22813    0.69594   1.00
C5       0.38364    -0.11102   0.67209   1.00
H2       0.33170    -0.15590   0.66997   1.00
H2       0.37796    -0.06491   0.67212   1.00
C5       0.41511    -0.11617   0.69224   1.00
H2       0.37871    -0.12655   0.70488   1.00
C5       0.38101    0.42090    0.53292   1.00
H2       0.32895    0.41174    0.53612   1.00
H2       0.37724    0.37012    0.53368   1.00
C5       0.40332    0.45183    0.51146   1.00
H2       0.38137    0.41125    0.49966   1.00
H2       0.45993    0.47935    0.51025   1.00
O_3      0.61475    0.53551    0.61236   1.00
C4       0.47600    0.49658    0.61554   1.00
C3c      0.44567    0.46305    0.59730   1.00
H1       0.44393    0.41570    0.59360   1.00
C3d      0.47687    0.55772    0.62022   1.00
C3       0.41811    0.49028    0.58348   1.00
O2       0.38199    0.45060    0.56720   1.00
C3       0.45065    0.58563    0.60631   1.00
H1       0.45463    0.63385    0.61023   1.00
C2       0.42046    0.55277    0.58770   1.00
C5       0.65832    0.60080    0.62057   1.00
H2       0.69354    0.59997    0.63223   1.00
H2       0.62845    0.62233    0.62769   1.00
C5       0.70069    0.64694    0.60329   1.00
H2       0.66547    0.64626    0.59137   1.00
H2       0.73077    0.62530    0.59642   1.00
C5       0.74798    0.71990    0.61080   1.00
H2       0.78298    0.72090    0.62280   1.00
H2       0.71791    0.74240    0.61701   1.00
H2       0.77961    0.75251    0.59804   1.00
C5       0.46583    0.57235    0.65396   1.00
C5       0.42563    0.46625    0.55026   1.00
H2       0.44850    0.51807    0.65749   1.00
H2       0.42012    0.57772    0.65120   1.00
H2       0.46711    0.45480    0.55372   1.00
H2       0.45041    0.52125    0.54585   1.00
H2       0.38445    0.48784    0.50793   1.00
H2       0.46911    0.53661    0.69583   1.00
H2       0.41410    0.57261    0.69173   1.00
C2       0.56747    0.42040    0.65709   1.00
C3       0.49699    0.39738    0.65829   1.00
O2       0.46057    0.36439    0.67546   1.00
C3       0.60566    0.46609    0.64134   1.00
H1       0.65933    0.48328    0.63968   1.00
C3a      0.46693    0.42155    0.64425   1.00
H1       0.41378    0.40649    0.64609   1.00
C3b      0.57607    0.49171    0.62780   1.00
C4       0.50624    0.46961    0.62921   1.00
O_3      0.51065    0.59533    0.63722   1.00
C5       0.42235    0.29344    0.67205   1.00
H2       0.38571    0.28102    0.65924   1.00
C5       0.38275    0.26085    0.69157   1.00
H2       0.45642    0.27243    0.66852   1.00
H2       0.33706    0.26718    0.69199   1.00
H2       0.41567    0.29076    0.70454   1.00
C5       0.36162    0.18495    0.69357   1.00
H2       0.33343    0.15691    0.67976   1.00
H2       0.32816    0.16165    0.70703   1.00
H2       0.40700    0.17842    0.69578   1.00
C5       0.50470    0.61589    0.67215   1.00
H2       0.51166    0.66780    0.67006   1.00
H2       0.55654    0.62169    0.67221   1.00
C5       0.46798    0.58423    0.69228   1.00
H2       0.49385    0.62056    0.70494   1.00
C5       0.29928    -0.30946   0.12857   1.00
H2       0.25890    -0.31382   0.11809   1.00
H2       0.28299    -0.30376   0.14399   1.00
C5       0.30433    -0.37504   0.12731   1.00
H2       0.26421    -0.41634   0.13678   1.00
H2       0.35533    -0.36444   0.13267   1.00
O_3      0.59310    0.00781    0.13771   1.00
C4       0.47621    -0.01988   0.11529   1.00
C3c      0.42513    -0.08514   0.12135   1.00
H1       0.40698    -0.09362   0.13683   1.00
C3d      0.49844    -0.00969   0.09498   1.00
C3       0.39740    -0.14048   0.10772   1.00
O2       0.34197    -0.20061   0.11404   1.00
C3       0.47187    -0.06497   0.08147   1.00
H1       0.49222    -0.05522   0.06623   1.00
C2       0.42072    -0.13147   0.08740   1.00
C5       0.65355    0.04180    0.12615   1.00
H2       0.69250    0.09016    0.13345   1.00
H2       0.64300    0.05413    0.11066   1.00
C5       0.68271    -0.00555   0.12433   1.00
H2       0.64309    -0.05460   0.11756   1.00
H2       0.69364    -0.01700   0.13987   1.00
C5       0.74754    0.02662    0.11132   1.00
H2       0.78715    0.07586    0.11791   1.00
H2       0.73621    0.03589    0.09559   1.00
H2       0.76894    -0.00809   0.11053   1.00
C5       0.52696    0.09512    0.08242   1.00
C5       0.36401    -0.24387   0.12237   1.00
H2       0.50174    0.10606    0.09518   1.00
H2       0.48976    0.07213    0.06970   1.00
H2       0.39689    -0.21931   0.13590   1.00
H2       0.39443    -0.25549   0.11137   1.00
H2       0.29599    -0.39516   0.11145   1.00
H2       0.56078    0.23489    0.08855   1.00
H2       0.52342    0.20211    0.06378   1.00
C2       0.56791    0.14856    0.15657   1.00
C3       0.50725    0.13345    0.14629   1.00
O2       0.48630    0.18107    0.14534   1.00
C3       0.59516    0.10495    0.15362   1.00
H1       0.64055    0.11410    0.16166   1.00
C3a      0.47649    0.07692    0.13307   1.00
H1       0.43228    0.06832    0.12444   1.00
C3b      0.56568    0.05008    0.13997   1.00
C4       0.50596    0.03574    0.12953   1.00
O_3      0.55216    0.05224    0.08864   1.00
C5       0.43320    0.16470    0.15935   1.00
H2       0.38833    0.11335    0.15618   1.00
C5       0.41217    0.21897    0.15713   1.00
H2       0.45072    0.16522    0.17519   1.00
H2       0.37838    0.20617    0.14363   1.00
H2       0.45912    0.26825    0.15369   1.00
C5       0.37647    0.22568    0.17619   1.00
H2       0.33294    0.17491    0.18033   1.00
H2       0.35690    0.26132    0.17340   1.00
H2       0.41255    0.24689    0.18928   1.00
C5       0.58749    0.16193    0.07525   1.00
H2       0.60531    0.15279    0.06046   1.00
H2       0.62996    0.17707    0.08628   1.00
C5       0.56960    0.21895    0.07335   1.00
H2       0.61247    0.26458    0.06611   1.00
C5       1.07632    0.37403    0.04654   1.00
H2       1.08138    0.41355    0.03559   1.00
H2       1.02312    0.33121    0.04499   1.00
C5       1.12753    0.35020    0.04099   1.00
H2       1.10715    0.31188    0.02854   1.00
H2       1.13778    0.32715    0.05449   1.00
O_3      1.01526    0.41398    0.14769   1.00
C4       1.01999    0.49732    0.11532   1.00
C3c      1.01802    0.46221    0.09755   1.00
H1       0.97324    0.41380    0.09415   1.00
C3d      1.07844    0.56079    0.11932   1.00
C3       1.07375    0.48824    0.08408   1.00
O2       1.06494    0.45530    0.06583   1.00
C3       1.13452    0.58622    0.10614   1.00
H1       1.17916    0.63392    0.11021   1.00
C2       1.13367    0.55101    0.08821   1.00
C5       1.05841    0.45171    0.16390   1.00
H2       1.03048    0.44043    0.17860   1.00
H2       1.08306    0.50765    0.16102   1.00
C5       1.11330    0.43211    0.16573   1.00
H2       1.13996    0.44158    0.15086   1.00
H2       1.08817    0.37630    0.16879   1.00
C5       1.16409    0.47277    0.18262   1.00
H2       1.13775    0.46393    0.19749   1.00
H2       1.19094    0.52835    0.17923   1.00
H2       1.20294    0.45668    0.18403   1.00
C5       1.05613    0.63714    0.13513   1.00
C5       1.08677    0.40690    0.06751   1.00
H2       1.00067    0.60667    0.13174   1.00
H2       1.08160    0.67545    0.12280   1.00
H2       1.05551    0.36756    0.07907   1.00
H2       1.14140    0.43050    0.07222   1.00
H2       1.17667    0.39359    0.03533   1.00
H2       0.96543    0.66785    0.15769   1.00
H2       1.02824    0.74010    0.14304   1.00
C2       0.85537    0.41725    0.15800   1.00
C3       0.85486    0.45593    0.14128   1.00
O2       0.81186    0.48265    0.14109   1.00
C3       0.90940    0.40312    0.15964   1.00
H1       0.91034    0.37218    0.17197   1.00
C3a      0.90852    0.48082    0.12703   1.00
H1       0.90942    0.51359    0.11496   1.00
C3b      0.96380    0.42978    0.14580   1.00
C4       0.96377    0.46909    0.12936   1.00
O_3      1.08501    0.59488    0.13735   1.00
C5       0.75488    0.44287    0.12862   1.00
H2       0.77074    0.44119    0.11269   1.00
C5       0.71053    0.47632    0.12894   1.00
H2       0.72483    0.38967    0.13445   1.00
H2       0.73308    0.52053    0.11835   1.00
H2       0.71426    0.49756    0.14443   1.00
C5       0.63549    0.42648    0.12337   1.00
H2       0.63308    0.40173    0.10860   1.00
H2       0.60625    0.45384    0.12211   1.00
H2       0.60960    0.38650    0.13530   1.00
C5       1.06566    0.67442    0.15513   1.00
H2       1.12055    0.71355    0.15676   1.00
H2       1.05311    0.63715    0.16771   1.00
C5       1.02051    0.70733    0.15650   1.00
H2       1.03393    0.73986    0.17027   1.00
C5       0.61094    0.66997    0.04014   1.00
H2       0.56565    0.63486    0.03099   1.00
H2       0.64860    0.65272    0.03793   1.00
C5       0.64006    0.74380    0.03230   1.00
H2       0.67265    0.75296    0.01869   1.00
H2       0.67101    0.78082    0.04436   1.00
O_3      0.60262    0.60642    0.14370   1.00
C4       0.50260    0.52269    0.11535   1.00
C3c      0.53194    0.54631    0.09617   1.00
H1       0.57576    0.54240    0.09166   1.00
C3d      0.44493    0.52736    0.12082   1.00
C3       0.50610    0.57609    0.08266   1.00
O2       0.53213    0.59035    0.06328   1.00
C3       0.41987    0.55817    0.10756   1.00
H1       0.37705    0.56282    0.11270   1.00
C2       0.44939    0.58301    0.08819   1.00
C5       0.57502    0.62320    0.16046   1.00
H2       0.58936    0.60960    0.17518   1.00
H2       0.51824    0.59663    0.15958   1.00
C5       0.60317    0.69977    0.16003   1.00
H2       0.59050    0.71363    0.14508   1.00
H2       0.65983    0.72578    0.16111   1.00
C5       0.57372    0.72215    0.17741   1.00
H2       0.58577    0.70805    0.19237   1.00
H2       0.51738    0.69804    0.17595   1.00
H2       0.59602    0.77843    0.17711   1.00
C5       0.36850    0.43946    0.14054   1.00
C5       0.58630    0.65851    0.06218   1.00
H2       0.39217    0.40779    0.13713   1.00
H2       0.32646    0.42646    0.12947   1.00
H2       0.62838    0.66607    0.07259   1.00
H2       0.57027    0.69613    0.06661   1.00
H2       0.59835    0.75355    0.02748   1.00
H2       0.33416    0.32398    0.16652   1.00
H2       0.26024    0.31825    0.15381   1.00
C2       0.58347    0.43873    0.15797   1.00
C3       0.53602    0.39639    0.14319   1.00
O2       0.50256    0.32641    0.14528   1.00
C3       0.60570    0.50929    0.15762   1.00
H1       0.64330    0.54334    0.16840   1.00
C3a      0.51079    0.42473    0.12891   1.00
H1       0.47160    0.39104    0.11843   1.00
C3b      0.57887    0.53695    0.14381   1.00
C4       0.53093    0.49462    0.12933   1.00
O_3      0.41733    0.50961    0.14009   1.00
C5       0.53210    0.29832    0.13247   1.00
H2       0.52936    0.31067    0.11623   1.00
C5       0.49162    0.22092    0.13542   1.00
H2       0.58655    0.31779    0.13653   1.00
H2       0.44374    0.20006    0.12641   1.00
H2       0.47612    0.21106    0.15166   1.00
C5       0.53229    0.18564    0.12943   1.00
H2       0.55193    0.20038    0.11371   1.00
H2       0.49943    0.12916    0.13015   1.00
H2       0.57586    0.19957    0.14004   1.00
C5       0.33872    0.42262    0.16185   1.00
H2       0.30518    0.44507    0.16393   1.00
H2       0.38138    0.44837    0.17290   1.00
C5       0.29912    0.34526    0.16582   1.00
H2       0.27229    0.33458    0.18063   1.00
C5       0.35542    0.65067    0.70432   1.00
H2       0.34824    0.60700    0.71378   1.00
H2       0.35974    0.63689    0.68843   1.00
C5       0.29274    0.66030    0.70664   1.00
H2       0.25012    0.62398    0.69674   1.00
H2       0.30668    0.71336    0.70248   1.00
O_3      0.68197    0.93309    0.69833   1.00
C4       0.64674    0.80949    0.71803   1.00
C3c      0.58027    0.76282    0.71159   1.00
H1       0.57082    0.74815    0.69580   1.00
C3d      0.65812    0.82717    0.73873   1.00
C3       0.52501    0.73515    0.72525   1.00
O2       0.46315    0.68367    0.71836   1.00
C3       0.60300    0.80072    0.75229   1.00
H1       0.61383    0.81762    0.76787   1.00
C2       0.53534    0.75403    0.74599   1.00
C5       0.71906    0.99045    0.71095   1.00
H2       0.76842    1.02880    0.70400   1.00
H2       0.73010    0.97524    0.72595   1.00
C5       0.67567    1.02353    0.71420   1.00
H2       0.62559    0.98467    0.72062   1.00
H2       0.66550    1.03909    0.69915   1.00
C5       0.71131    1.08521    0.72841   1.00
H2       0.76157    1.12402    0.72216   1.00
H2       0.71936    1.06936    0.74366   1.00
H2       0.67952    1.10961    0.73025   1.00
C5       0.76094    0.84629    0.75049   1.00
C5       0.42320    0.71137    0.71125   1.00
H2       0.76964    0.82232    0.73695   1.00
H2       0.73608    0.80672    0.76253   1.00
H2       0.44925    0.74654    0.69826   1.00
H2       0.41423    0.74114    0.72318   1.00
H2       0.27275    0.64962    0.72252   1.00
H2       0.89780    0.87252    0.74326   1.00
H2       0.86350    0.83082    0.76745   1.00
C2       0.81548    0.90121    0.67687   1.00
C3       0.79648    0.83742    0.68574   1.00
O2       0.84073    0.81218    0.68546   1.00
C3       0.77555    0.93179    0.68114   1.00
H1       0.78769    0.97976    0.67417   1.00
C3a      0.73986    0.80680    0.69893   1.00
H1       0.72833    0.75988    0.70651   1.00
C3b      0.72061    0.90227    0.69477   1.00
C4       0.70242    0.83937    0.70382   1.00
O_3      0.72158    0.87675    0.74556   1.00
C5       0.82113    0.76169    0.67034   1.00
H2       0.76846    0.71837    0.67307   1.00
C5       0.87175    0.73560    0.67123   1.00
H2       0.82295    0.78326    0.65500   1.00
H2       0.85695    0.69865    0.68399   1.00
H2       0.92256    0.77975    0.67519   1.00
C5       0.87563    0.70254    0.65120   1.00
H2       0.82364    0.66218    0.64666   1.00
H2       0.90846    0.67916    0.65297   1.00
H2       0.89869    0.74115    0.63878   1.00
C5       0.82959    0.90235    0.75826   1.00
H2       0.82208    0.91810    0.77361   1.00
H2       0.84728    0.94754    0.74816   1.00
C5       0.88309    0.87938    0.75888   1.00
H2       0.93008    0.91873    0.76656   1.00
C5       0.42850    0.59753    0.72260   1.00
H2       0.40815    0.63307    0.72196   1.00
H2       0.44352    0.59381    0.70681   1.00
C5       0.49135    0.62715    0.73678   1.00
H2       0.53790    0.66585    0.72869   1.00
H2       0.49989    0.58558    0.74231   1.00
O_3      0.19493    0.24932    0.72263   1.00
C4       0.16292    0.35370    0.71787   1.00
C3c      0.22522    0.41355    0.71424   1.00
H1       0.25373    0.41785    0.70063   1.00
C3d      0.12609    0.34951    0.73556   1.00
C3       0.25214    0.46813    0.72813   1.00
O2       0.30896    0.52806    0.72238   1.00
C3       0.15339    0.40324    0.74961   1.00
H1       0.12447    0.39673    0.76330   1.00
C2       0.21667    0.46382    0.74627   1.00
C5       0.15644    0.20277    0.73811   1.00
H2       0.12879    0.14907    0.73257   1.00
H2       0.11823    0.21487    0.74463   1.00
C5       0.20567    0.20857    0.75469   1.00
H2       0.23468    0.26264    0.75983   1.00
H2       0.24317    0.19576    0.74805   1.00
C5       0.16760    0.16119    0.77252   1.00
H2       0.13814    0.10715    0.76747   1.00
H2       0.13186    0.17544    0.77960   1.00
H2       0.20455    0.16502    0.78428   1.00
C5       0.01060    0.28957    0.73152   1.00
C5       0.36849    0.52895    0.72931   1.00
H2       0.01455    0.29094    0.71470   1.00
H2       0.00553    0.33379    0.73666   1.00
H2       0.37240    0.48612    0.72234   1.00
H2       0.36900    0.52331    0.74616   1.00
H2       0.48459    0.65390    0.75006   1.00
H2       -0.10879   0.19552    0.70874   1.00
H2       -0.12306   0.25345    0.72432   1.00
C2       0.08214    0.18303    0.67737   1.00
C3       0.06836    0.23657    0.67406   1.00
O2       0.01626    0.22743    0.66125   1.00
C3       0.12559    0.18906    0.69364   1.00
H1       0.13856    0.14979    0.69626   1.00
C3a      0.09645    0.29337    0.68721   1.00
H1       0.08229    0.33205    0.68517   1.00
C3b      0.15167    0.24456    0.70707   1.00
C4       0.13708    0.29724    0.70395   1.00
O_3      0.06715    0.28981    0.74060   1.00
C5       0.04294    0.25892    0.64238   1.00
H2       0.07868    0.31482    0.64420   1.00
C5       -0.01760   0.24755    0.62924   1.00
H2       0.07062    0.23588    0.63479   1.00
H2       -0.03309   0.28521    0.63380   1.00
H2       -0.06116   0.19619    0.63304   1.00
C5       -0.00193   0.25302    0.60633   1.00
H2       0.04486    0.30241    0.60307   1.00
H2       -0.04497   0.25019    0.59738   1.00
H2       0.00521    0.21011    0.60101   1.00
C5       -0.05297   0.22378    0.73778   1.00
H2       -0.06336   0.22773    0.75408   1.00
H2       -0.04181   0.18126    0.73649   1.00
C5       -0.11505   0.20882    0.72459   1.00
H2       -0.16178   0.16463    0.73089   1.00
C5       0.17842    0.57551    0.72061   1.00
H2       0.23462    0.59766    0.72049   1.00
H2       0.16172    0.56195    0.70461   1.00
C5       0.14541    0.51097    0.73411   1.00
H2       0.14015    0.46603    0.72566   1.00
H2       0.09409    0.50003    0.73925   1.00
O_3      0.05259    0.79998    0.72149   1.00
C4       0.19077    0.83710    0.71788   1.00
C3c      0.19111    0.77641    0.71380   1.00
H1       0.16912    0.74917    0.69984   1.00
C3d      0.22056    0.87233    0.73603   1.00
C3       0.21875    0.74943    0.72768   1.00
O2       0.22478    0.69457    0.72157   1.00
C3       0.24695    0.84492    0.75006   1.00
H1       0.26708    0.87247    0.76409   1.00
C2       0.24704    0.78321    0.74627   1.00
C5       0.04112    0.83554    0.73717   1.00
H2       0.01415    0.86230    0.73164   1.00
H2       0.09012    0.87412    0.74429   1.00
C5       -0.00308   0.78367    0.75309   1.00
H2       0.02299    0.75560    0.75820   1.00
H2       -0.05209   0.74580    0.74586   1.00
C5       -0.01607   0.81850    0.77112   1.00
H2       -0.04166   0.84702    0.76610   1.00
H2       0.03266    0.85458    0.77877   1.00
H2       -0.04968   0.77964    0.78239   1.00
C5       0.27310    0.98808    0.73318   1.00
C5       0.16659    0.63318    0.72768   1.00
H2       0.27253    0.98612    0.71632   1.00
H2       0.32251    0.99431    0.73868   1.00
H2       0.11994    0.62839    0.72037   1.00
H2       0.15844    0.63043    0.74446   1.00
H2       0.17776    0.51729    0.74766   1.00
H2       0.29684    1.10873    0.71141   1.00
H2       0.36804    1.12361    0.72757   1.00
C2       0.10069    0.91764    0.67736   1.00
C3       0.16908    0.93410    0.67461   1.00
O2       0.21226    0.98831    0.66246   1.00
C3       0.06242    0.87171    0.69306   1.00
H1       0.00944    0.85671    0.69523   1.00
C3a      0.19793    0.90612    0.68774   1.00
H1       0.25142    0.92225    0.68617   1.00
C3b      0.09188    0.84569    0.70650   1.00
C4       0.16017    0.86292    0.70394   1.00
O_3      0.21693    0.92945    0.74147   1.00
C5       0.22035    0.96460    0.64346   1.00
H2       0.24207    0.93015    0.64516   1.00
C5       0.26955    1.02736    0.63108   1.00
H2       0.17064    0.93645    0.63534   1.00
H2       0.32255    1.04401    0.63611   1.00
H2       0.25949    1.06929    0.63513   1.00
C5       0.26238    1.01435    0.60801   1.00
H2       0.26722    0.96899    0.60444   1.00
H2       0.30267    1.05911    0.59964   1.00
H2       0.21229    1.00607    0.60231   1.00
C5       0.26765    1.04953    0.73985   1.00
H2       0.27999    1.05832    0.75632   1.00
H2       0.21357    1.03670    0.73813   1.00
C5       0.31471    1.11372    0.72743   1.00
H2       0.31477    1.15886    0.73406   1.00
