data_IRMOF10_interpen_symm_ligand11lp_label_m_1.

_audit_creation_method             'generated by an auxiliary program of Tobunporous'

_symmetry_space_group_name_H-M     'P 1'
_symmetry_Int_Tables_number        1
_symmetry_cell_setting             triclinic

_cell_length_a                    22.6523
_cell_length_b                    22.6523
_cell_length_c                    65.9502
_cell_angle_alpha                 90.0000
_cell_angle_beta                  90.0000
_cell_angle_gamma                 120.0000

loop_
_atom_site_label
_atom_site_fract_x
_atom_site_fract_y
_atom_site_fract_z
_atom_site_occupancy
O1       0.00000    -0.00000   0.62500   1.00
Zn1      0.00000    -0.00000   0.59589   1.00
Zn1      0.94848    1.04288    0.63392   1.00
Zn1      0.09439    0.05152    0.63392   1.00
Zn1      -0.04288   0.90561    0.63392   1.00
O2       0.93860    0.02610    0.58587   1.00
O2       0.08750    0.06140    0.58587   1.00
O2       -0.02610   0.91250    0.58587   1.00
O2       0.91305    0.07161    0.61181   1.00
O2       0.00462    0.12022    0.65110   1.00
O2       0.87413    0.98074    0.65071   1.00
O2       0.15856    0.08695    0.61181   1.00
O2       0.10660    0.12587    0.65071   1.00
O2       0.11559    0.99538    0.65110   1.00
O2       -0.07161   0.84144    0.61181   1.00
O2       0.87978    0.88441    0.65110   1.00
O2       0.01926    0.89340    0.65071   1.00
C1       0.91390    0.06020    0.59358   1.00
C1       0.14630    0.08610    0.59358   1.00
C1       -0.06020   0.85370    0.59358   1.00
C1       0.06663    0.14397    0.65673   1.00
C1       0.85603    0.92267    0.65673   1.00
C1       0.07733    0.93337    0.65673   1.00
O1       -0.00000   0.00000    0.87500   1.00
Zn1      -0.00000   0.00000    0.90411   1.00
Zn1      1.04288    0.94848    0.86608   1.00
Zn1      0.05152    0.09439    0.86608   1.00
Zn1      0.90561    -0.04288   0.86608   1.00
O2       0.02610    0.93860    0.91413   1.00
O2       0.06140    0.08750    0.91413   1.00
O2       0.91250    -0.02610   0.91413   1.00
O2       0.07161    0.91305    0.88819   1.00
O2       0.12022    0.00462    0.84890   1.00
O2       0.98074    0.87413    0.84929   1.00
O2       0.08695    0.15856    0.88819   1.00
O2       0.12587    0.10660    0.84929   1.00
O2       0.99538    0.11559    0.84890   1.00
O2       0.84144    -0.07161   0.88819   1.00
O2       0.88441    0.87978    0.84890   1.00
O2       0.89340    0.01926    0.84929   1.00
C1       0.06020    0.91390    0.90642   1.00
C1       0.08610    0.14630    0.90642   1.00
C1       0.85370    -0.06020   0.90642   1.00
C1       0.14397    0.06663    0.84327   1.00
C1       0.92267    0.85603    0.84327   1.00
C1       0.93337    0.07733    0.84327   1.00
O1       0.00000    0.00000    0.37500   1.00
Zn1      0.00000    0.00000    0.40411   1.00
Zn1      0.05152    -0.04288   0.36608   1.00
Zn1      0.90561    0.94848    0.36608   1.00
Zn1      1.04288    0.09439    0.36608   1.00
O2       0.06140    -0.02610   0.41413   1.00
O2       0.91250    0.93860    0.41413   1.00
O2       0.02610    0.08750    0.41413   1.00
O2       0.08695    -0.07161   0.38819   1.00
O2       0.99538    0.87978    0.34890   1.00
O2       0.12587    0.01926    0.34929   1.00
O2       0.84144    0.91305    0.38819   1.00
O2       0.89340    0.87413    0.34929   1.00
O2       0.88441    0.00462    0.34890   1.00
O2       0.07161    0.15856    0.38819   1.00
O2       0.12022    0.11559    0.34890   1.00
O2       0.98074    0.10660    0.34929   1.00
C1       0.08610    -0.06020   0.40642   1.00
C1       0.85370    0.91390    0.40642   1.00
C1       0.06020    0.14630    0.40642   1.00
C1       0.93337    0.85603    0.34327   1.00
C1       0.14397    0.07733    0.34327   1.00
C1       0.92267    0.06663    0.34327   1.00
O1       0.00000    0.00000    0.12500   1.00
Zn1      0.00000    0.00000    0.09589   1.00
Zn1      -0.04288   0.05152    0.13392   1.00
Zn1      0.94848    0.90561    0.13392   1.00
Zn1      0.09439    1.04288    0.13392   1.00
O2       -0.02610   0.06140    0.08587   1.00
O2       0.93860    0.91250    0.08587   1.00
O2       0.08750    0.02610    0.08587   1.00
O2       -0.07161   0.08695    0.11181   1.00
O2       0.87978    0.99538    0.15110   1.00
O2       0.01926    0.12587    0.15071   1.00
O2       0.91305    0.84144    0.11181   1.00
O2       0.87413    0.89340    0.15071   1.00
O2       0.00462    0.88441    0.15110   1.00
O2       0.15856    0.07161    0.11181   1.00
O2       0.11559    0.12022    0.15110   1.00
O2       0.10660    0.98074    0.15071   1.00
C1       -0.06020   0.08610    0.09358   1.00
C1       0.91390    0.85370    0.09358   1.00
C1       0.14630    0.06020    0.09358   1.00
C1       0.85603    0.93337    0.15673   1.00
C1       0.07733    0.14397    0.15673   1.00
C1       0.06663    0.92267    0.15673   1.00
O1       0.66667    0.33333    0.95833   1.00
Zn1      0.66667    0.33333    0.92922   1.00
Zn1      0.61515    0.37621    0.96725   1.00
Zn1      0.76106    0.38485    0.96725   1.00
Zn1      -0.37621   0.23894    0.96725   1.00
O2       0.60527    0.35943    0.91920   1.00
O2       0.75417    0.39473    0.91920   1.00
O2       0.64057    0.24583    0.91920   1.00
O2       0.57972    0.40494    0.94514   1.00
O2       0.67129    0.45355    0.98443   1.00
O2       0.54080    0.31407    0.98404   1.00
O2       0.82523    0.42028    0.94514   1.00
O2       0.77327    0.45920    0.98404   1.00
O2       -0.21774   0.32871    0.98443   1.00
O2       0.59506    0.17477    0.94514   1.00
O2       0.54645    0.21774    0.98443   1.00
O2       -0.31407   0.22673    0.98404   1.00
C1       0.58057    0.39353    0.92691   1.00
C1       0.81297    0.41943    0.92691   1.00
C1       0.60647    0.18703    0.92691   1.00
C1       0.73330    0.47730    0.99006   1.00
C1       0.52270    0.25600    0.99006   1.00
C1       -0.25600   0.26670    0.99006   1.00
O1       0.66667    0.33333    0.20833   1.00
Zn1      0.66667    0.33333    0.23744   1.00
Zn1      0.70954    0.28182    0.19942   1.00
Zn1      0.71818    0.42773    0.19942   1.00
Zn1      0.57227    0.29046    0.19942   1.00
O2       0.69277    0.27193    0.24746   1.00
O2       0.72807    0.42083    0.24746   1.00
O2       0.57917    0.30723    0.24746   1.00
O2       0.73828    0.24638    0.22152   1.00
O2       0.78688    0.33796    0.18224   1.00
O2       0.64740    0.20747    0.18263   1.00
O2       0.75362    0.49189    0.22152   1.00
O2       0.79253    0.43994    0.18263   1.00
O2       0.66204    0.44893    0.18224   1.00
O2       0.50811    0.26172    0.22152   1.00
O2       0.55107    0.21312    0.18224   1.00
O2       0.56006    0.35260    0.18263   1.00
C1       0.72687    0.24723    0.23975   1.00
C1       0.75277    0.47963    0.23975   1.00
C1       0.52037    0.27313    0.23975   1.00
C1       0.81063    0.39997    0.17661   1.00
C1       0.58933    0.18937    0.17661   1.00
C1       0.60003    0.41067    0.17661   1.00
O1       0.66667    0.33333    0.70833   1.00
Zn1      0.66667    0.33333    0.73744   1.00
Zn1      0.71818    0.29046    0.69942   1.00
Zn1      0.57227    0.28182    0.69942   1.00
Zn1      0.70954    0.42773    0.69942   1.00
O2       0.72807    0.30723    0.74746   1.00
O2       0.57917    0.27193    0.74746   1.00
O2       0.69277    0.42083    0.74746   1.00
O2       0.75362    0.26172    0.72152   1.00
O2       0.66204    0.21312    0.68224   1.00
O2       0.79253    0.35260    0.68263   1.00
O2       0.50811    0.24638    0.72152   1.00
O2       0.56006    0.20747    0.68263   1.00
O2       0.55107    0.33796    0.68224   1.00
O2       0.73828    0.49189    0.72152   1.00
O2       0.78688    0.44893    0.68224   1.00
O2       0.64740    0.43994    0.68263   1.00
C1       0.75277    0.27313    0.73975   1.00
C1       0.52037    0.24723    0.73975   1.00
C1       0.72687    0.47963    0.73975   1.00
C1       0.60003    0.18937    0.67661   1.00
C1       0.81063    0.41067    0.67661   1.00
C1       0.58933    0.39997    0.67661   1.00
O1       0.66667    0.33333    0.45833   1.00
Zn1      0.66667    0.33333    0.42922   1.00
Zn1      -0.37621   0.38485    0.46725   1.00
Zn1      0.61515    0.23894    0.46725   1.00
Zn1      0.76106    0.37621    0.46725   1.00
O2       0.64057    0.39473    0.41920   1.00
O2       0.60527    0.24583    0.41920   1.00
O2       0.75417    0.35943    0.41920   1.00
O2       0.59506    0.42028    0.44514   1.00
O2       0.54645    0.32871    0.48443   1.00
O2       -0.31407   0.45920    0.48404   1.00
O2       0.57972    0.17477    0.44514   1.00
O2       0.54080    0.22673    0.48404   1.00
O2       0.67129    0.21774    0.48443   1.00
O2       0.82523    0.40494    0.44514   1.00
O2       -0.21774   0.45355    0.48443   1.00
O2       0.77327    0.31407    0.48404   1.00
C1       0.60647    0.41943    0.42691   1.00
C1       0.58057    0.18703    0.42691   1.00
C1       0.81297    0.39353    0.42691   1.00
C1       0.52270    0.26670    0.49006   1.00
C1       -0.25600   0.47730    0.49006   1.00
C1       0.73330    0.25600    0.49006   1.00
O1       0.33333    0.66667    0.29167   1.00
Zn1      0.33333    0.66667    0.26256   1.00
Zn1      0.28182    0.70954    0.30058   1.00
Zn1      0.42773    0.71818    0.30058   1.00
Zn1      0.29046    0.57227    0.30058   1.00
O2       0.27193    0.69277    0.25254   1.00
O2       0.42083    0.72807    0.25254   1.00
O2       0.30723    0.57917    0.25254   1.00
O2       0.24638    0.73828    0.27848   1.00
O2       0.33796    0.78688    0.31776   1.00
O2       0.20747    0.64740    0.31737   1.00
O2       0.49189    0.75362    0.27848   1.00
O2       0.43994    0.79253    0.31737   1.00
O2       0.44893    0.66204    0.31776   1.00
O2       0.26172    0.50811    0.27848   1.00
O2       0.21312    0.55107    0.31776   1.00
O2       0.35260    0.56006    0.31737   1.00
C1       0.24723    0.72687    0.26025   1.00
C1       0.47963    0.75277    0.26025   1.00
C1       0.27313    0.52037    0.26025   1.00
C1       0.39997    0.81063    0.32339   1.00
C1       0.18937    0.58933    0.32339   1.00
C1       0.41067    0.60003    0.32339   1.00
O1       0.33333    0.66667    0.54167   1.00
Zn1      0.33333    0.66667    0.57078   1.00
Zn1      0.37621    0.61515    0.53275   1.00
Zn1      0.38485    0.76106    0.53275   1.00
Zn1      0.23894    -0.37621   0.53275   1.00
O2       0.35943    0.60527    0.58080   1.00
O2       0.39473    0.75417    0.58080   1.00
O2       0.24583    0.64057    0.58080   1.00
O2       0.40494    0.57972    0.55486   1.00
O2       0.45355    0.67129    0.51557   1.00
O2       0.31407    0.54080    0.51596   1.00
O2       0.42028    0.82523    0.55486   1.00
O2       0.45920    0.77327    0.51596   1.00
O2       0.32871    -0.21774   0.51557   1.00
O2       0.17477    0.59506    0.55486   1.00
O2       0.21774    0.54645    0.51557   1.00
O2       0.22673    -0.31407   0.51596   1.00
C1       0.39353    0.58057    0.57309   1.00
C1       0.41943    0.81297    0.57309   1.00
C1       0.18703    0.60647    0.57309   1.00
C1       0.47730    0.73330    0.50994   1.00
C1       0.25600    0.52270    0.50994   1.00
C1       0.26670    -0.25600   0.50994   1.00
O1       0.33333    0.66667    0.04167   1.00
Zn1      0.33333    0.66667    0.07078   1.00
Zn1      0.38485    -0.37621   0.03275   1.00
Zn1      0.23894    0.61515    0.03275   1.00
Zn1      0.37621    0.76106    0.03275   1.00
O2       0.39473    0.64057    0.08080   1.00
O2       0.24583    0.60527    0.08080   1.00
O2       0.35943    0.75417    0.08080   1.00
O2       0.42028    0.59506    0.05486   1.00
O2       0.32871    0.54645    0.01557   1.00
O2       0.45920    -0.31407   0.01596   1.00
O2       0.17477    0.57972    0.05486   1.00
O2       0.22673    0.54080    0.01596   1.00
O2       0.21774    0.67129    0.01557   1.00
O2       0.40494    0.82523    0.05486   1.00
O2       0.45355    -0.21774   0.01557   1.00
O2       0.31407    0.77327    0.01596   1.00
C1       0.41943    0.60647    0.07309   1.00
C1       0.18703    0.58057    0.07309   1.00
C1       0.39353    0.81297    0.07309   1.00
C1       0.26670    0.52270    0.00994   1.00
C1       0.47730    -0.25600   0.00994   1.00
C1       0.25600    0.73330    0.00994   1.00
O1       0.33333    0.66667    0.79167   1.00
Zn1      0.33333    0.66667    0.76256   1.00
Zn1      0.29046    0.71818    0.80058   1.00
Zn1      0.28182    0.57227    0.80058   1.00
Zn1      0.42773    0.70954    0.80058   1.00
O2       0.30723    0.72807    0.75254   1.00
O2       0.27193    0.57917    0.75254   1.00
O2       0.42083    0.69277    0.75254   1.00
O2       0.26172    0.75362    0.77848   1.00
O2       0.21312    0.66204    0.81776   1.00
O2       0.35260    0.79253    0.81737   1.00
O2       0.24638    0.50811    0.77848   1.00
O2       0.20747    0.56006    0.81737   1.00
O2       0.33796    0.55107    0.81776   1.00
O2       0.49189    0.73828    0.77848   1.00
O2       0.44893    0.78688    0.81776   1.00
O2       0.43994    0.64740    0.81737   1.00
C1       0.27313    0.75277    0.76025   1.00
C1       0.24723    0.52037    0.76025   1.00
C1       0.47963    0.72687    0.76025   1.00
C1       0.18937    0.60003    0.82339   1.00
C1       0.41067    0.81063    0.82339   1.00
C1       0.39997    0.58933    0.82339   1.00
C5       0.10950    0.96447    0.55350   1.00
H2       0.08022    0.99135    0.55560   1.00
H2       0.12162    0.96815    0.53706   1.00
C5       0.17586    1.00038    0.56616   1.00
H2       0.21594    1.04602    0.55806   1.00
H2       0.19509    0.96456    0.56912   1.00
O_3      -0.07335   0.61044    0.54632   1.00
C4       -0.13023   0.69597    0.54839   1.00
C3c      -0.07599   0.76239    0.54504   1.00
H1       -0.05023   0.77544    0.53054   1.00
C3d      -0.16375   0.68028    0.56728   1.00
C3       -0.05352   0.81253    0.56031   1.00
O2       -0.00586   0.87836    0.55514   1.00
C3       -0.14066   0.72972    0.58265   1.00
H1       -0.16639   0.71464    0.59713   1.00
C2       -0.08540   0.79693    0.57960   1.00
C5       -0.10089   0.55790    0.56095   1.00
H2       -0.12174   0.50640    0.55399   1.00
H2       -0.14258   0.55880    0.56972   1.00
C5       -0.04374   0.56953    0.57538   1.00
H2       -0.02161   0.62174    0.58191   1.00
H2       -0.00271   0.56789    0.56650   1.00
C5       -0.06993   0.51580    0.59229   1.00
H2       -0.09253   0.46350    0.58587   1.00
H2       -0.10922   0.51897    0.60161   1.00
H2       -0.02716   0.52422    0.60242   1.00
C5       -0.27782   0.60427    0.56545   1.00
C5       0.06042    0.89017    0.55933   1.00
H2       -0.27900   0.61028    0.54874   1.00
H2       -0.29054   0.64062    0.57300   1.00
H2       0.07105    0.85523    0.55010   1.00
H2       0.06728    0.88137    0.57565   1.00
H2       0.16731    1.01917    0.58094   1.00
H2       -0.39505   0.50206    0.54356   1.00
H2       -0.41724   0.54595    0.56253   1.00
C2       -0.19591   0.53921    0.50337   1.00
C3       -0.22250   0.58384    0.50345   1.00
O2       -0.28091   0.56780    0.49269   1.00
C3       -0.14516   0.54987    0.51776   1.00
H1       -0.12251   0.51770    0.51776   1.00
C3a      -0.19945   0.63635    0.51805   1.00
H1       -0.22310   0.66762    0.51865   1.00
C3b      -0.12393   0.60075    0.53267   1.00
C4       -0.15117   0.64442    0.53293   1.00
O_3      -0.21397   0.61437    0.57187   1.00
C5       -0.26418   0.60547    0.47448   1.00
H2       -0.23617   0.66149    0.47751   1.00
C5       -0.33137   0.58574    0.46366   1.00
H2       -0.23201   0.59302    0.46457   1.00
H2       -0.35421   0.61428    0.47078   1.00
H2       -0.36702   0.53069    0.46676   1.00
C5       -0.32258   0.59928    0.44063   1.00
H2       -0.28288   0.65318    0.43781   1.00
H2       -0.37127   0.58977    0.43359   1.00
H2       -0.30793   0.56456    0.43287   1.00
C5       -0.33144   0.53176    0.57114   1.00
H2       -0.33844   0.52915    0.58790   1.00
H2       -0.31129   0.49728    0.56720   1.00
C5       -0.39959   0.50859    0.56016   1.00
H2       -0.43933   0.45853    0.56623   1.00
C5       0.12185    0.26051    0.58103   1.00
H2       0.07470    0.21169    0.57760   1.00
H2       0.12854    0.29525    0.56824   1.00
C5       0.11266    0.28988    0.60122   1.00
H2       0.08382    0.31719    0.59875   1.00
H2       0.16335    0.32594    0.60786   1.00
O_3      0.43306    0.28482    0.55775   1.00
C4       0.30369    0.17386    0.54829   1.00
C3c      0.25725    0.19687    0.55155   1.00
H1       0.25993    0.23749    0.54226   1.00
C3d      0.29870    0.12021    0.56037   1.00
C3       0.20748    0.16880    0.56692   1.00
O2       0.15869    0.18804    0.56758   1.00
C3       0.25005    0.09304    0.57594   1.00
H1       0.24972    0.05365    0.58528   1.00
C2       0.20317    0.11623    0.57958   1.00
C5       0.47480    0.26480    0.56810   1.00
H2       0.52474    0.28302    0.56037   1.00
H2       0.44909    0.20816    0.56948   1.00
C5       0.48813    0.29593    0.58919   1.00
H2       0.43817    0.27926    0.59671   1.00
H2       0.51437    0.35248    0.58763   1.00
C5       0.53134    0.27464    0.60179   1.00
H2       0.58112    0.29070    0.59429   1.00
H2       0.50415    0.21836    0.60395   1.00
H2       0.54181    0.29908    0.61699   1.00
C5       0.32555    0.04844    0.54373   1.00
C5       0.17945    0.24367    0.58100   1.00
H2       0.32250    0.06848    0.52860   1.00
H2       0.27490    0.00327    0.54735   1.00
H2       0.22782    0.28836    0.57553   1.00
H2       0.18885    0.23169    0.59673   1.00
H2       0.08249    0.24840    0.61239   1.00
H2       0.38625    0.01807    0.50969   1.00
H2       0.31877    -0.05812   0.52173   1.00
C2       0.46096    0.26232    0.50334   1.00
C3       0.39537    0.20908    0.49800   1.00
O2       0.38546    0.17373    0.48010   1.00
C3       0.47198    0.28744    0.52346   1.00
H1       0.52111    0.32933    0.52789   1.00
C3a      0.34338    0.18125    0.51279   1.00
H1       0.29460    0.13796    0.50876   1.00
C3b      0.42081    0.25820    0.53829   1.00
C4       0.35594    0.20459    0.53304   1.00
O_3      0.34638    0.09923    0.55881   1.00
C5       0.35600    0.19639    0.46540   1.00
H2       0.30575    0.18879    0.47061   1.00
C5       0.34564    0.15415    0.44622   1.00
H2       0.39021    0.25148    0.46192   1.00
H2       0.29867    0.10362    0.44816   1.00
H2       0.38903    0.14423    0.44523   1.00
C5       0.34098    0.18954    0.42680   1.00
H2       0.30101    0.20390    0.42869   1.00
H2       0.32776    0.15501    0.41347   1.00
H2       0.39084    0.23608    0.42324   1.00
C5       0.37870    0.02609    0.54282   1.00
H2       0.37344    -0.00443   0.55665   1.00
H2       0.43020    0.07254    0.54347   1.00
C5       0.37183    -0.01493   0.52347   1.00
H2       0.40648    -0.03634   0.52433   1.00
C5       0.76363    0.07479    0.63385   1.00
H2       0.75402    0.02172    0.63306   1.00
H2       0.71275    0.07071    0.63283   1.00
C5       0.79811    0.10723    0.65431   1.00
H2       0.75957    0.09121    0.66666   1.00
H2       0.82574    0.16383    0.65308   1.00
O_3      0.86450    0.26779    0.54526   1.00
C4       0.82527    0.12893    0.54831   1.00
C3c      0.79486    0.10772    0.56748   1.00
H1       0.74816    0.10779    0.57082   1.00
C3d      0.88559    0.12752    0.54418   1.00
C3       0.82444    0.08710    0.58269   1.00
O2       0.78756    0.05922    0.60015   1.00
C3       0.91586    0.10826    0.55941   1.00
H1       0.96339    0.11030    0.55577   1.00
C2       0.88619    0.08737    0.57896   1.00
C5       0.92831    0.30693    0.53566   1.00
H2       0.92547    0.33617    0.52246   1.00
H2       0.94868    0.27392    0.53022   1.00
C5       0.97726    0.35720    0.55117   1.00
H2       0.97864    0.32808    0.56461   1.00
H2       0.95675    0.39028    0.55636   1.00
C5       1.04886    0.40036    0.54216   1.00
H2       1.04779    0.42920    0.52864   1.00
H2       1.07035    0.36758    0.53762   1.00
H2       1.08354    0.43781    0.55357   1.00
C5       0.89457    0.10031    0.51144   1.00
C5       0.80598    0.11058    0.61500   1.00
H2       0.83975    0.08146    0.50829   1.00
H2       0.90047    0.05638    0.51636   1.00
H2       0.79389    0.14997    0.60952   1.00
H2       0.86166    0.13722    0.61868   1.00
H2       0.83473    0.09023    0.65900   1.00
H2       0.85182    0.08335    0.46955   1.00
H2       0.88857    0.03088    0.47651   1.00
C2       0.74201    0.19944    0.50223   1.00
C3       0.71891    0.12911    0.50415   1.00
O2       0.68311    0.08478    0.48859   1.00
C3       0.79026    0.24483    0.51642   1.00
H1       0.80764    0.29875    0.51568   1.00
C3a      0.74547    0.10612    0.51967   1.00
H1       0.73019    0.05263    0.52022   1.00
C3b      0.81819    0.22207    0.53142   1.00
C4       0.79597    0.15227    0.53312   1.00
O_3      0.92028    0.15274    0.52610   1.00
C5       0.61283    0.04862    0.49314   1.00
H2       0.60261    0.01854    0.50743   1.00
C5       0.57703    0.00002    0.47541   1.00
H2       0.59236    0.08405    0.49484   1.00
H2       0.58336    -0.04540   0.47720   1.00
H2       0.60470    0.02634    0.46129   1.00
C5       0.50086    -0.02184   0.47375   1.00
H2       0.47520    -0.04307   0.48850   1.00
H2       0.47537    -0.06144   0.46181   1.00
H2       0.49390    0.02202    0.46938   1.00
C5       0.93497    0.12998    0.49200   1.00
H2       0.98720    0.13787    0.49419   1.00
H2       0.94068    0.18127    0.48955   1.00
C5       0.90001    0.08394    0.47353   1.00
H2       0.93416    0.10342    0.46011   1.00
C5       0.68087    -0.10656   0.86455   1.00
H2       0.72022    -0.05166   0.86402   1.00
H2       0.63096    -0.10833   0.86477   1.00
C5       0.68685    -0.14280   0.84541   1.00
H2       0.66097    -0.13466   0.83224   1.00
H2       0.66325    -0.19852   0.84829   1.00
O_3      0.60824    -0.26914   0.95835   1.00
C4       0.69628    -0.12889   0.95167   1.00
C3c      0.68377    -0.11641   0.93171   1.00
H1       0.63435    -0.12340   0.92775   1.00
C3d      0.76134    -0.11853   0.95659   1.00
C3       0.73409    -0.09579   0.91654   1.00
O2       0.72099    -0.07656   0.89804   1.00
C3       0.81112    -0.09926   0.94143   1.00
H1       0.85945    -0.09430   0.94576   1.00
C2       0.79908    -0.08715   0.92112   1.00
C5       0.63922    -0.29930   0.96966   1.00
H2       0.60908    -0.32628   0.98340   1.00
H2       0.69157    -0.26030   0.97462   1.00
C5       0.64390    -0.35094   0.95604   1.00
H2       0.67237    -0.32436   0.94204   1.00
H2       0.59132    -0.38997   0.95133   1.00
C5       0.67933    -0.38455   0.96696   1.00
H2       0.65143    -0.41079   0.98103   1.00
H2       0.73263    -0.34593   0.97104   1.00
H2       0.68093    -0.42320   0.95693   1.00
C5       0.79650    -0.07847   0.98865   1.00
C5       0.69240    -0.13298   0.88469   1.00
H2       0.75622    -0.06452   0.99061   1.00
H2       0.84365    -0.03305   0.98286   1.00
H2       0.64295    -0.17422   0.89084   1.00
H2       0.72632    -0.15518   0.88240   1.00
H2       0.74132    -0.12180   0.84088   1.00
H2       0.76755    -0.05282   1.02934   1.00
H2       0.85523    0.00483    1.02175   1.00
C2       0.54304    -0.19904   0.99791   1.00
C3       0.58422    -0.12853   0.99410   1.00
O2       0.58789    -0.08148   1.00809   1.00
C3       0.55154    -0.24522   0.98548   1.00
H1       0.51961    -0.29955   0.98766   1.00
C3a      0.63355    -0.10589   0.97853   1.00
H1       0.66730    -0.05169   0.97657   1.00
C3b      0.60211    -0.22248   0.97044   1.00
C4       0.64372    -0.15235   0.96688   1.00
O_3      0.77461    -0.13504   0.97561   1.00
C5       0.54735    -0.05368   1.00177   1.00
H2       0.56448    -0.02780   0.98675   1.00
C5       0.55505    -0.00144   1.01782   1.00
H2       0.49269    -0.09406   1.00059   1.00
H2       0.60407    0.04659    1.01511   1.00
H2       0.55985    -0.02122   1.03283   1.00
C5       0.49501    0.01253    1.01792   1.00
H2       0.48757    0.02701    1.00242   1.00
H2       0.50513    0.05476    1.02856   1.00
H2       0.44680    -0.03312   1.02315   1.00
C5       0.81167    -0.09852   1.00921   1.00
H2       0.85945    -0.10095   1.00794   1.00
H2       0.76990    -0.15100   1.01287   1.00
C5       0.81787    -0.04864   1.02606   1.00
H2       0.83588    -0.06063   1.04032   1.00
C5       0.26038    0.12168    0.91902   1.00
H2       0.21153    0.07456    0.92244   1.00
H2       0.29508    0.12835    0.93182   1.00
C5       0.28977    0.11246    0.89884   1.00
H2       0.31704    0.08358    0.90132   1.00
H2       0.32587    0.16314    0.89220   1.00
O_3      0.28490    0.43302    0.94226   1.00
C4       0.17386    0.30369    0.95171   1.00
C3c      0.19683    0.25720    0.94847   1.00
H1       0.23741    0.25986    0.95776   1.00
C3d      0.12026    0.29874    0.93962   1.00
C3       0.16875    0.20744    0.93309   1.00
O2       0.18795    0.15860    0.93245   1.00
C3       0.09309    0.25009    0.92405   1.00
H1       0.05373    0.24980    0.91469   1.00
C2       0.11623    0.20317    0.92042   1.00
C5       0.26495    0.47479    0.93189   1.00
H2       0.28319    0.52474    0.93963   1.00
H2       0.20832    0.44912    0.93051   1.00
C5       0.29613    0.48809    0.91081   1.00
H2       0.27944    0.43812    0.90329   1.00
H2       0.35267    0.51430    0.91238   1.00
C5       0.27491    0.53134    0.89820   1.00
H2       0.29099    0.58113    0.90569   1.00
H2       0.21864    0.50419    0.89603   1.00
H2       0.29939    0.54179    0.88300   1.00
C5       0.04850    0.32567    0.95623   1.00
C5       0.24360    0.17933    0.91903   1.00
H2       0.06850    0.32261    0.97137   1.00
H2       0.00332    0.27504    0.95261   1.00
H2       0.28830    0.22768    0.92451   1.00
H2       0.23167    0.18874    0.90330   1.00
H2       0.24830    0.08231    0.88766   1.00
H2       0.01813    0.38643    0.99025   1.00
H2       -0.05806   0.31899    0.97821   1.00
C2       0.26232    0.46096    0.99666   1.00
C3       0.20904    0.39539    1.00200   1.00
O2       0.17366    0.38551    1.01989   1.00
C3       0.28748    0.47196    0.97655   1.00
H1       0.32941    0.52107    0.97212   1.00
C3a      0.18121    0.34340    0.98721   1.00
H1       0.13788    0.29463    0.99123   1.00
C3b      0.25825    0.42079    0.96171   1.00
C4       0.20459    0.35594    0.96696   1.00
O_3      0.09933    0.34646    0.94117   1.00
C5       0.19625    0.35602    1.03460   1.00
H2       0.18862    0.30575    1.02939   1.00
C5       0.15398    0.34569    1.05376   1.00
H2       0.25134    0.39020    1.03809   1.00
H2       0.10343    0.29875    1.05182   1.00
H2       0.14410    0.38912    1.05475   1.00
C5       0.18931    0.34101    1.07320   1.00
H2       0.20363    0.30101    1.07131   1.00
H2       0.15475    0.32781    1.08653   1.00
H2       0.23586    0.39085    1.07677   1.00
C5       0.02621    0.37887    0.95713   1.00
H2       -0.00428   0.37363    0.94329   1.00
H2       0.07268    0.43035    0.95648   1.00
C5       -0.01484   0.37203    0.97647   1.00
H2       -0.03621   0.40672    0.97560   1.00
C5       0.07477    0.76361    0.86615   1.00
H2       0.02170    0.75401    0.86694   1.00
H2       0.07069    0.71273    0.86718   1.00
C5       0.10720    0.79809    0.84569   1.00
H2       0.09118    0.75954    0.83334   1.00
H2       0.16380    0.82572    0.84692   1.00
O_3      0.26779    0.86449    0.95473   1.00
C4       0.12893    0.82527    0.95169   1.00
C3c      0.10771    0.79486    0.93252   1.00
H1       0.10778    0.74815    0.92918   1.00
C3d      0.12752    0.88559    0.95582   1.00
C3       0.08710    0.82443    0.91731   1.00
O2       0.05920    0.78755    0.89985   1.00
C3       0.10827    0.91587    0.94059   1.00
H1       0.11031    0.96340    0.94423   1.00
C2       0.08737    0.88619    0.92104   1.00
C5       0.30693    0.92830    0.96433   1.00
H2       0.33617    0.92546    0.97754   1.00
H2       0.27393    0.94868    0.96978   1.00
C5       0.35720    0.97725    0.94882   1.00
H2       0.32809    0.97863    0.93538   1.00
H2       0.39028    0.95673    0.94363   1.00
C5       0.40037    1.04885    0.95784   1.00
H2       0.42921    1.04777    0.97135   1.00
H2       0.36759    1.07034    0.96237   1.00
H2       0.43781    1.08352    0.94642   1.00
C5       0.10032    0.89458    0.98856   1.00
C5       0.11056    0.80597    0.88500   1.00
H2       0.08147    0.83976    0.99171   1.00
H2       0.05640    0.90049    0.98364   1.00
H2       0.14995    0.79387    0.89048   1.00
H2       0.13721    0.86164    0.88132   1.00
H2       0.09021    0.83471    0.84100   1.00
H2       0.08338    0.85184    1.03045   1.00
H2       0.03091    0.88859    1.02349   1.00
C2       0.19944    0.74201    0.99777   1.00
C3       0.12911    0.71892    0.99585   1.00
O2       0.08478    0.68312    1.01141   1.00
C3       0.24483    0.79026    0.98358   1.00
H1       0.29875    0.80763    0.98432   1.00
C3a      0.10612    0.74547    0.98033   1.00
H1       0.05263    0.73020    0.97978   1.00
C3b      0.22207    0.81819    0.96857   1.00
C4       0.15227    0.79597    0.96688   1.00
O_3      0.15275    0.92028    0.97390   1.00
C5       0.04862    0.61283    1.00686   1.00
H2       0.01854    0.60262    0.99257   1.00
C5       0.00002    0.57705    1.02459   1.00
H2       0.08404    0.59237    1.00516   1.00
H2       -0.04540   0.58338    1.02280   1.00
H2       0.02634    0.60472    1.03871   1.00
C5       -0.02184   0.50088    1.02625   1.00
H2       -0.04308   0.47521    1.01150   1.00
H2       -0.06144   0.47539    1.03819   1.00
H2       0.02201    0.49391    1.03062   1.00
C5       0.13001    0.93499    1.00800   1.00
H2       0.13790    0.98722    1.00581   1.00
H2       0.18129    0.94069    1.01045   1.00
C5       0.08397    0.90004    1.02647   1.00
H2       0.10345    0.93418    1.03989   1.00
C5       -0.02315   0.00963    0.45688   1.00
H2       -0.06400   0.00379    0.44635   1.00
H2       -0.04288   0.00824    0.47241   1.00
C5       -0.00950   -0.05027   0.45383   1.00
H2       -0.04783   -0.09643   0.46215   1.00
H2       0.04239    -0.03578   0.45942   1.00
O_3      0.24647    0.33764    0.47449   1.00
C4       0.12916    0.30435    0.45148   1.00
C3c      0.08263    0.23562    0.45576   1.00
H1       0.06270    0.22082    0.47096   1.00
C3d      0.15376    0.32272    0.43151   1.00
C3       0.06186    0.18496    0.44069   1.00
O2       0.01008    0.12038    0.44537   1.00
C3       0.13419    0.27222    0.41657   1.00
H1       0.15626    0.28840    0.40165   1.00
C2       0.08776    0.20237    0.42069   1.00
C5       0.30743    0.38016    0.46387   1.00
H2       0.34167    0.42765    0.47244   1.00
H2       0.29658    0.39501    0.44879   1.00
C5       0.34433    0.34033    0.46075   1.00
H2       0.30941    0.29195    0.45269   1.00
H2       0.35546    0.32632    0.47590   1.00
C5       0.41031    0.38213    0.44863   1.00
H2       0.44522    0.43073    0.45652   1.00
H2       0.39905    0.39411    0.43323   1.00
H2       0.43732    0.35277    0.44688   1.00
C5       0.17230    0.42738    0.42186   1.00
C5       0.03775    0.08039    0.45247   1.00
H2       0.14280    0.43056    0.43489   1.00
H2       0.13739    0.40531    0.40859   1.00
H2       0.06781    0.10313    0.46659   1.00
H2       0.07262    0.07667    0.44117   1.00
H2       -0.01393   -0.06517   0.43749   1.00
H2       0.18987    0.55948    0.43178   1.00
H2       0.15744    0.53196    0.40624   1.00
C2       0.20012    0.45953    0.49714   1.00
C3       0.13916    0.44115    0.48653   1.00
O2       0.11123    0.48309    0.48691   1.00
C3       0.23467    0.42328    0.49299   1.00
H1       0.28050    0.43492    0.50123   1.00
C3a      0.11529    0.38889    0.47184   1.00
H1       0.07070    0.37808    0.46303   1.00
C3b      0.21199    0.37284    0.47791   1.00
C4       0.15196    0.35535    0.46716   1.00
O_3      0.20351    0.38877    0.42687   1.00
C5       0.05554    0.45710    0.50045   1.00
H2       0.01495    0.40485    0.49590   1.00
C5       0.02685    0.50558    0.49973   1.00
H2       0.07211    0.45494    0.51621   1.00
H2       -0.00564   0.49364    0.48596   1.00
H2       0.07069    0.55818    0.49762   1.00
C5       -0.01393   0.50164    0.51892   1.00
H2       -0.05406   0.44788    0.52168   1.00
H2       -0.03871   0.53318    0.51713   1.00
H2       0.01997    0.52180    0.53252   1.00
C5       0.22873    0.49904    0.41652   1.00
H2       0.25044    0.49724    0.40152   1.00
H2       0.27039    0.51498    0.42788   1.00
C5       0.20297    0.55038    0.41620   1.00
H2       0.24340    0.60023    0.41022   1.00
C5       0.72123    0.72005    0.37411   1.00
H2       0.72524    0.76352    0.36521   1.00
H2       0.66683    0.67939    0.37327   1.00
C5       0.76734    0.69525    0.36448   1.00
H2       0.74151    0.66116    0.35132   1.00
H2       0.77989    0.66703    0.37592   1.00
O_3      0.69583    0.73116    0.47910   1.00
C4       0.69574    0.82607    0.45154   1.00
C3c      0.68621    0.79612    0.43229   1.00
H1       0.63900    0.74999    0.42885   1.00
C3d      0.75723    0.88672    0.45562   1.00
C3       0.73739    0.82437    0.41732   1.00
O2       0.72127    0.79708    0.39811   1.00
C3       0.80880    0.91425    0.44088   1.00
H1       0.85602    0.95945    0.44495   1.00
C2       0.80030    0.88420    0.42141   1.00
C5       0.74471    0.76241    0.49464   1.00
H2       0.72159    0.74751    0.51005   1.00
H2       0.77107    0.81912    0.49345   1.00
C5       0.79689    0.73939    0.49228   1.00
H2       0.81861    0.75256    0.47669   1.00
H2       0.77012    0.68277    0.49369   1.00
C5       0.85351    0.77306    0.50822   1.00
H2       0.83213    0.76051    0.52383   1.00
H2       0.88182    0.82947    0.50638   1.00
H2       0.89034    0.75447    0.50654   1.00
C5       0.74537    0.96035    0.47654   1.00
C5       0.73976    0.74632    0.39590   1.00
H2       0.68901    0.93295    0.47469   1.00
H2       0.76854    1.00211    0.46507   1.00
H2       0.71072    0.70402    0.40690   1.00
H2       0.79529    0.76634    0.39874   1.00
H2       0.81567    0.73898    0.35849   1.00
H2       0.66685    0.98851    0.50548   1.00
H2       0.72740    1.06384    0.49147   1.00
C2       0.54521    0.73845    0.49842   1.00
C3       0.54204    0.78316    0.48411   1.00
O2       0.50226    0.81236    0.48780   1.00
C3       0.59685    0.72109    0.49622   1.00
H1       0.59959    0.68563    0.50661   1.00
C3a      0.59093    0.81061    0.46843   1.00
H1       0.59017    0.84776    0.45830   1.00
C3b      0.64669    0.75016    0.48100   1.00
C4       0.64411    0.79542    0.46698   1.00
O_3      0.77120    0.91534    0.47480   1.00
C5       0.44108    0.77846    0.47660   1.00
H2       0.45138    0.78112    0.45996   1.00
C5       0.40057    0.81440    0.48123   1.00
H2       0.41058    0.72383    0.48114   1.00
H2       0.42183    0.86174    0.47194   1.00
H2       0.41023    0.83089    0.49739   1.00
C5       0.32348    0.76887    0.47729   1.00
H2       0.31510    0.74853    0.46157   1.00
H2       0.29665    0.79845    0.47917   1.00
H2       0.29968    0.72557    0.48830   1.00
C5       0.76299    0.99147    0.49768   1.00
H2       0.81881    1.02826    0.49831   1.00
H2       0.75241    0.95010    0.50873   1.00
C5       0.72200    1.02656    0.50335   1.00
H2       0.74117    1.05464    0.51788   1.00
C5       0.22479    0.13961    0.43030   1.00
H2       0.23744    0.13630    0.41422   1.00
H2       0.27439    0.16726    0.43838   1.00
C5       0.18637    0.17997    0.43162   1.00
H2       0.22276    0.23589    0.43121   1.00
H2       0.15638    0.16710    0.44594   1.00
O_3      0.12882    -0.14409   0.49175   1.00
C4       0.17478    -0.12986   0.45141   1.00
C3c      0.20259    -0.06053   0.44664   1.00
H1       0.24725    -0.02270   0.45464   1.00
C3d      0.11716    -0.17840   0.44060   1.00
C3       0.17295    -0.03879   0.43176   1.00
O2       0.20768    0.02883    0.42619   1.00
C3       0.08676    -0.15684   0.42605   1.00
H1       0.04122    -0.19574   0.41866   1.00
C2       0.11378    -0.08687   0.42119   1.00
C5       0.06617    -0.20471   0.49492   1.00
H2       0.06912    -0.23602   0.50750   1.00
H2       0.04931    -0.23669   0.48092   1.00
C5       0.01342    -0.18467   0.50045   1.00
H2       0.01184    -0.15178   0.48814   1.00
H2       0.03045    -0.15331   0.51454   1.00
C5       -0.05710   -0.24787   0.50347   1.00
H2       -0.05578   -0.28118   0.51564   1.00
H2       -0.07519   -0.27796   0.48919   1.00
H2       -0.09464   -0.23224   0.50794   1.00
C5       0.11508    -0.27889   0.43512   1.00
C5       0.18449    0.06579    0.43778   1.00
H2       0.16972    -0.25673   0.43927   1.00
H2       0.11131    -0.27451   0.41837   1.00
H2       0.19461    0.06304    0.45421   1.00
H2       0.12847    0.04560    0.43602   1.00
H2       0.15130    0.16850    0.41842   1.00
H2       0.16378    -0.37207   0.44407   1.00
H2       0.13040    -0.38191   0.41846   1.00
C2       0.25794    -0.19853   0.49804   1.00
C3       0.28429    -0.18829   0.47814   1.00
O2       0.32396    -0.21573   0.47223   1.00
C3       0.20636    -0.18238   0.50227   1.00
H1       0.18638    -0.18797   0.51746   1.00
C3a      0.25767    -0.16417   0.46296   1.00
H1       0.27562    -0.16031   0.44756   1.00
C3b      0.17848    -0.16049   0.48700   1.00
C4       0.20398    -0.15134   0.46715   1.00
O_3      0.08480    -0.24676   0.44577   1.00
C5       0.39345    -0.16486   0.47208   1.00
H2       0.40301    -0.12267   0.46142   1.00
C5       0.43371    -0.19894   0.46507   1.00
H2       0.41082    -0.14298   0.48752   1.00
H2       0.43010    -0.20375   0.44825   1.00
H2       0.40748    -0.25181   0.47125   1.00
C5       0.50896    -0.15995   0.47185   1.00
H2       0.53284    -0.10588   0.46693   1.00
H2       0.53783    -0.18295   0.46507   1.00
H2       0.51367    -0.16216   0.48868   1.00
C5       0.07713    -0.35397   0.44098   1.00
H2       0.02581    -0.37868   0.43376   1.00
H2       0.06884    -0.35756   0.45770   1.00
C5       0.11653    -0.39026   0.43481   1.00
H2       0.08435    -0.44604   0.43738   1.00
C5       0.30775    0.06408    0.13308   1.00
H2       0.29302    0.10111    0.13873   1.00
H2       0.36421    0.09031    0.13423   1.00
C5       0.27479    -0.00041   0.14661   1.00
H2       0.30508    0.00793    0.16070   1.00
H2       0.27165    -0.04448   0.13818   1.00
O_3      0.32895    0.03470    0.02860   1.00
C4       0.30409    0.13027    0.04840   1.00
C3c      0.31936    0.12812    0.06894   1.00
H1       0.37108    0.14366    0.07338   1.00
C3d      0.23658    0.11074    0.04298   1.00
C3       0.26842    0.10514    0.08398   1.00
O2       0.28859    0.11232    0.10395   1.00
C3       0.18549    0.08659    0.05786   1.00
H1       0.13402    0.06988    0.05288   1.00
C2       0.19991    0.08339    0.07867   1.00
C5       0.27992    -0.00253   0.01354   1.00
H2       0.30369    0.00065    -0.00153   1.00
H2       0.24305    0.01622    0.01179   1.00
C5       0.24154    -0.07673   0.02015   1.00
H2       0.21939    -0.07969   0.03546   1.00
H2       0.27874    -0.09509   0.02166   1.00
C5       0.18534    -0.12064   0.00491   1.00
H2       0.20704    -0.11755   -0.01045   1.00
H2       0.14688    -0.10385   0.00391   1.00
H2       0.15885    -0.17493   0.00976   1.00
C5       0.22830    0.17105    0.01650   1.00
C5       0.28586    0.05182    0.11080   1.00
H2       0.28301    0.21096    0.01755   1.00
H2       0.19771    0.18745    0.02574   1.00
H2       0.32154    0.04167    0.10177   1.00
H2       0.23375    0.00613    0.10930   1.00
H2       0.22252    -0.01320   0.15160   1.00
H2       0.28832    0.26138    -0.01773   1.00
H2       0.21741    0.26635    -0.00665   1.00
C2       0.45516    0.19232    0.00172   1.00
C3       0.44607    0.24157    0.01219   1.00
O2       0.47240    0.30654    0.00444   1.00
C3       0.41579    0.12327    0.00773   1.00
H1       0.42280    0.08457    0.00037   1.00
C3a      0.39725    0.22088    0.02787   1.00
H1       0.38815    0.25867    0.03496   1.00
C3b      0.36577    0.10258    0.02288   1.00
C4       0.35605    0.15147    0.03307   1.00
O_3      0.21788    0.10701    0.02283   1.00
C5       0.53263    0.35224    0.01485   1.00
H2       0.52282    0.35370    0.03139   1.00
C5       0.55787    0.42295    0.00565   1.00
H2       0.57255    0.33758    0.01297   1.00
H2       0.52753    0.44464    0.01224   1.00
H2       0.54586    0.41583    -0.01086   1.00
C5       0.63474    0.47180    0.00905   1.00
H2       0.64666    0.47408    0.02548   1.00
H2       0.64995    0.52413    0.00368   1.00
H2       0.66624    0.45511    0.00035   1.00
C5       0.20592    0.16417    -0.00556   1.00
H2       0.14923    0.13336    -0.00613   1.00
H2       0.22573    0.13467    -0.01378   1.00
C5       0.23180    0.23406    -0.01573   1.00
H2       0.20873    0.22716    -0.03104   1.00
C5       0.73451    0.70646    0.12967   1.00
H2       0.78221    0.71523    0.13711   1.00
H2       0.69835    0.65076    0.13076   1.00
C5       0.70604    0.74662    0.14108   1.00
H2       0.67707    0.71830    0.15480   1.00
H2       0.67170    0.75516    0.13094   1.00
O_3      0.71861    0.68502    0.02430   1.00
C4       0.82613    0.69582    0.04843   1.00
C3c      0.80140    0.68318    0.06842   1.00
H1       0.75942    0.63354    0.07243   1.00
C3d      0.88151    0.76054    0.04359   1.00
C3       0.82951    0.73426    0.08342   1.00
O2       0.80832    0.71578    0.10314   1.00
C3       0.90875    0.81191    0.05839   1.00
H1       0.94958    0.86146    0.05379   1.00
C2       0.88387    0.80022    0.07862   1.00
C5       0.74128    0.73459    0.00879   1.00
H2       0.72383    0.71135    -0.00651   1.00
H2       0.79808    0.76593    0.00858   1.00
C5       0.71187    0.78071    0.01304   1.00
H2       0.72772    0.80244    0.02856   1.00
H2       0.65516    0.74901    0.01303   1.00
C5       0.73608    0.83783    -0.00278   1.00
H2       0.72084    0.81649    -0.01833   1.00
H2       0.79252    0.87094    -0.00230   1.00
H2       0.71287    0.87010    0.00031   1.00
C5       0.95400    0.75829    0.01998   1.00
C5       0.75362    0.72710    0.10747   1.00
H2       0.93224    0.70230    0.02158   1.00
H2       0.99846    0.78478    0.03044   1.00
H2       0.70940    0.69506    0.09738   1.00
H2       0.76744    0.78146    0.10514   1.00
H2       0.74810    0.79693    0.14655   1.00
H2       0.98410    0.68839    -0.01145   1.00
H2       1.06023    0.75378    0.00118   1.00
C2       0.73786    0.54508    0.00163   1.00
C3       0.78925    0.54723    0.01426   1.00
O2       0.82334    0.51345    0.00874   1.00
C3       0.71440    0.59136    0.00552   1.00
H1       0.67389    0.58985    -0.00354   1.00
C3a      0.81699    0.59606    0.02994   1.00
H1       0.85897    0.59961    0.03873   1.00
C3b      0.74360    0.64127    0.02071   1.00
C4       0.79541    0.64404    0.03304   1.00
O_3      0.90435    0.77717    0.02381   1.00
C5       0.79804    0.45209    0.01976   1.00
H2       0.80447    0.46188    0.03643   1.00
C5       0.83901    0.41844    0.01305   1.00
H2       0.74293    0.41717    0.01648   1.00
H2       0.88891    0.44381    0.02111   1.00
H2       0.85050    0.42958    -0.00339   1.00
C5       0.80122    0.34089    0.01691   1.00
H2       0.78541    0.33050    0.03307   1.00
H2       0.83475    0.31927    0.01345   1.00
H2       0.75534    0.31363    0.00695   1.00
C5       0.97847    0.77866    -0.00175   1.00
H2       1.01049    0.83523    -0.00246   1.00
H2       0.93310    0.76400    -0.01154   1.00
C5       1.01831    0.74447    -0.00947   1.00
H2       1.04135    0.76585    -0.02449   1.00
C5       0.13954    0.22431    0.06957   1.00
H2       0.13637    0.23708    0.08564   1.00
H2       0.16723    0.27385    0.06146   1.00
C5       0.17975    0.18573    0.06824   1.00
H2       0.23568    0.22203    0.06862   1.00
H2       0.16672    0.15565    0.05394   1.00
O_3      -0.14445   0.12856    0.00827   1.00
C4       -0.12986   0.17478    0.04859   1.00
C3c      -0.06051   0.20248    0.05332   1.00
H1       -0.02267   0.24705    0.04529   1.00
C3d      -0.17841   0.11728    0.05944   1.00
C3       -0.03878   0.17284    0.06820   1.00
O2       0.02888    0.20748    0.07373   1.00
C3       -0.15686   0.08687    0.07399   1.00
H1       -0.19578   0.04142    0.08141   1.00
C2       -0.08688   0.11378    0.07881   1.00
C5       -0.20518   0.06596    0.00515   1.00
H2       -0.23652   0.06892    -0.00742   1.00
H2       -0.23707   0.04924    0.01916   1.00
C5       -0.18532   0.01306    -0.00037   1.00
H2       -0.15240   0.01147    0.01192   1.00
H2       -0.15406   0.02995    -0.01449   1.00
C5       -0.24865   -0.05740   -0.00334   1.00
H2       -0.28200   -0.05607   -0.01551   1.00
H2       -0.27865   -0.07536   0.01095   1.00
H2       -0.23316   -0.09506   -0.00781   1.00
C5       -0.27874   0.11548    0.06496   1.00
C5       0.06566    0.18409    0.06214   1.00
H2       -0.25650   0.17011    0.06078   1.00
H2       -0.27426   0.11180    0.08171   1.00
H2       0.06283    0.19413    0.04570   1.00
H2       0.04536    0.12806    0.06392   1.00
H2       0.16828    0.15072    0.08146   1.00
H2       -0.37174   0.16442    0.05604   1.00
H2       -0.38148   0.13117    0.08167   1.00
C2       -0.19854   0.25794    0.00196   1.00
C3       -0.18812   0.28441    0.02185   1.00
O2       -0.21538   0.32424    0.02776   1.00
C3       -0.18257   0.20623    -0.00225   1.00
H1       -0.18830   0.18614    -0.01744   1.00
C3a      -0.16399   0.25779    0.03702   1.00
H1       -0.15999   0.27585    0.05242   1.00
C3b      -0.16067   0.17835    0.01301   1.00
C4       -0.15134   0.20398    0.03285   1.00
O_3      -0.24680   0.08502    0.05431   1.00
C5       -0.16440   0.39369    0.02787   1.00
H2       -0.12217   0.40322    0.03851   1.00
C5       -0.19829   0.43413    0.03487   1.00
H2       -0.14261   0.41093    0.01241   1.00
H2       -0.20299   0.43062    0.05170   1.00
H2       -0.25120   0.40796    0.02873   1.00
C5       -0.15920   0.50933    0.02805   1.00
H2       -0.10511   0.53314    0.03294   1.00
H2       -0.18206   0.53834    0.03484   1.00
H2       -0.16151   0.51395    0.01122   1.00
C5       -0.35386   0.07763    0.05914   1.00
H2       -0.37862   0.02636    0.06640   1.00
H2       -0.35758   0.06925    0.04243   1.00
C5       -0.38997   0.11722    0.06531   1.00
H2       -0.44578   0.08512    0.06278   1.00
C5       0.64528    1.32053    0.87621   1.00
H2       0.60614    1.32068    0.88632   1.00
H2       0.62703    1.31922    0.86049   1.00
C5       0.71452    1.38633    0.87970   1.00
H2       0.71688    1.42993    0.87119   1.00
H2       0.75701    1.37856    0.87461   1.00
O_3      0.63290    1.01082    0.85996   1.00
C4       0.53635    1.02889    0.88184   1.00
C3c      0.55032    1.09531    0.87739   1.00
H1       0.54415    1.10826    0.86206   1.00
C3d      0.54378    1.01281    0.90198   1.00
C3       0.57329    1.14612    0.89247   1.00
O2       0.57789    1.20735    0.88755   1.00
C3       0.56789    1.06363    0.91695   1.00
H1       0.57511    1.04953    0.93202   1.00
C2       0.58297    1.13125    0.91267   1.00
C5       0.65776    0.97442    0.87102   1.00
H2       0.65144    0.92892    0.86260   1.00
H2       0.63114    0.95689    0.88591   1.00
C5       0.73334    1.02225    0.87474   1.00
H2       0.73980    1.06860    0.88265   1.00
H2       0.75949    1.03891    0.85978   1.00
C5       0.76405    0.98734    0.88737   1.00
H2       0.75736    0.94074    0.87963   1.00
H2       0.73959    0.97281    0.90258   1.00
H2       0.81961    1.02257    0.88955   1.00
C5       0.46651    0.90397    0.91132   1.00
C5       0.64475    1.25407    0.88094   1.00
H2       0.43342    0.89633    0.89797   1.00
H2       0.44834    0.92226    0.92431   1.00
H2       0.65722    1.23435    0.86704   1.00
H2       0.68421    1.26307    0.89263   1.00
H2       0.72193    1.40144    0.89605   1.00
H2       0.36489    0.76589    0.90097   1.00
H2       0.35318    0.79026    0.92627   1.00
C2       0.47379    0.87431    0.83623   1.00
C3       0.42475    0.88487    0.84626   1.00
O2       0.35653    0.83608    0.84538   1.00
C3       0.54347    0.91798    0.84092   1.00
H1       0.58237    0.91237    0.83313   1.00
C3a      0.44592    0.93694    0.86094   1.00
H1       0.40752    0.94184    0.86931   1.00
C3b      0.56419    0.96828    0.85599   1.00
C4       0.51531    0.97802    0.86617   1.00
O_3      0.53567    0.94972    0.90684   1.00
C5       0.32239    0.85568    0.83137   1.00
H2       0.32670    0.90534    0.83572   1.00
C5       0.24725    0.79981    0.83153   1.00
H2       0.34352    0.86053    0.81580   1.00
H2       0.22230    0.80766    0.84500   1.00
H2       0.24544    0.75021    0.83387   1.00
C5       0.20928    0.79815    0.81193   1.00
H2       0.21617    0.84955    0.80900   1.00
H2       0.15376    0.76089    0.81331   1.00
H2       0.22816    0.78174    0.79862   1.00
C5       0.46030    0.83588    0.91693   1.00
H2       0.48364    0.84088    0.93216   1.00
H2       0.49111    0.82510    0.90594   1.00
C5       0.38570    0.77740    0.91672   1.00
H2       0.38242    0.73020    0.92290   1.00
C5       -0.03316   0.58996    0.96463   1.00
H2       -0.08011   0.59329    0.96268   1.00
H2       0.01013    0.64272    0.96266   1.00
C5       -0.03213   0.56336    0.98617   1.00
H2       -0.01357   0.60538    0.99749   1.00
H2       0.00180    0.54092    0.98648   1.00
O_3      0.08020    0.48297    0.88187   1.00
C4       -0.02971   0.50796    0.88162   1.00
C3c      -0.02455   0.54268    0.89977   1.00
H1       0.01901    0.59278    0.90229   1.00
C3d      -0.08738   0.44314    0.87852   1.00
C3       -0.07464   0.51323    0.91502   1.00
O2       -0.07039   0.55347    0.93123   1.00
C3       -0.13668   0.41314    0.89383   1.00
H1       -0.17878   0.36235    0.89106   1.00
C2       -0.13188   0.44723    0.91236   1.00
C5       0.06228    0.41797    0.87415   1.00
H2       0.09638    0.42090    0.86152   1.00
H2       0.00869    0.39093    0.86846   1.00
C5       0.06883    0.37696    0.89135   1.00
H2       0.03622    0.37566    0.90420   1.00
H2       0.12266    0.40409    0.89678   1.00
C5       0.04786    0.30443    0.88442   1.00
H2       0.07990    0.30536    0.87150   1.00
H2       -0.00658   0.27650    0.87966   1.00
H2       0.05442    0.27573    0.89707   1.00
C5       -0.12295   0.42122    0.84561   1.00
C5       -0.03413   0.54455    0.94727   1.00
H2       -0.09145   0.47572    0.84118   1.00
H2       -0.17501   0.41095    0.84978   1.00
H2       0.01896    0.56062    0.94236   1.00
H2       -0.05823   0.49026    0.95238   1.00
H2       -0.08448   0.52402    0.99114   1.00
H2       -0.09894   0.45247    0.80289   1.00
H2       -0.18894   0.40925    0.80946   1.00
C2       0.12457    0.59149    0.83569   1.00
C3       0.07190    0.60764    0.83589   1.00
O2       0.05933    0.63552    0.81897   1.00
C3       0.12669    0.55025    0.85148   1.00
H1       0.16734    0.53841    0.85206   1.00
C3a      0.02212    0.58117    0.85135   1.00
H1       -0.02003   0.59079    0.85064   1.00
C3b      0.07589    0.52222    0.86646   1.00
C4       0.02298    0.53746    0.86646   1.00
O_3      -0.09236   0.40472    0.86160   1.00
C5       0.08667    0.70630    0.82162   1.00
H2       0.06383    0.71731    0.83509   1.00
C5       0.06968    0.73304    0.80246   1.00
H2       0.14307    0.73269    0.82363   1.00
H2       0.01579    0.72127    0.80350   1.00
H2       0.07223    0.70324    0.78939   1.00
C5       0.11788    0.81005    0.79911   1.00
H2       0.11879    0.83854    0.81294   1.00
H2       0.10050    0.82867    0.78605   1.00
H2       0.17084    0.82158    0.79546   1.00
C5       -0.12851   0.37695    0.82751   1.00
H2       -0.16910   0.32356    0.83073   1.00
H2       -0.07965   0.37660    0.82614   1.00
C5       -0.14354   0.40292    0.80769   1.00
H2       -0.15428   0.36566    0.79529   1.00
C5       0.43834    0.41935    0.96786   1.00
H2       0.42658    0.36552    0.96752   1.00
H2       0.38834    0.41730    0.96714   1.00
C5       0.47559    0.45326    0.98788   1.00
H2       0.43854    0.43999    1.00054   1.00
H2       0.50490    0.50968    0.98607   1.00
O_3      0.53590    0.60190    0.87735   1.00
C4       0.49190    0.46224    0.88164   1.00
C3c      0.46329    0.44409    0.90113   1.00
H1       0.41800    0.44659    0.90471   1.00
C3d      0.55036    0.45770    0.87720   1.00
C3       0.49291    0.42348    0.91632   1.00
O2       0.45751    0.39860    0.93418   1.00
C3       0.58072    0.43844    0.89241   1.00
H1       0.62688    0.43803    0.88851   1.00
C2       0.55288    0.42063    0.91226   1.00
C5       0.59893    0.63797    0.86712   1.00
H2       0.59602    0.66644    0.85372   1.00
H2       0.61685    0.60278    0.86182   1.00
C5       0.65057    0.68888    0.88198   1.00
H2       0.65208    0.66063    0.89562   1.00
H2       0.63249    0.72414    0.88703   1.00
C5       0.72145    0.72879    0.87227   1.00
H2       0.72022    0.75674    0.85855   1.00
H2       0.74056    0.69388    0.86787   1.00
H2       0.75816    0.76678    0.88321   1.00
C5       0.55452    0.42583    0.84465   1.00
C5       0.47929    0.45189    0.94853   1.00
H2       0.49980    0.40864    0.84193   1.00
H2       0.55891    0.38130    0.84987   1.00
H2       0.46859    0.49200    0.94282   1.00
H2       0.53523    0.47706    0.95171   1.00
H2       0.51114    0.43484    0.99250   1.00
H2       0.50759    0.40567    0.80314   1.00
H2       0.54198    0.35129    0.81030   1.00
C2       0.40871    0.53264    0.83551   1.00
C3       0.38332    0.46209    0.83808   1.00
O2       0.34478    0.41666    0.82306   1.00
C3       0.45932    0.57845    0.84909   1.00
H1       0.47855    0.63264    0.84786   1.00
C3a      0.40992    0.43922    0.85362   1.00
H1       0.39274    0.38536    0.85466   1.00
C3b      0.48722    0.55570    0.86411   1.00
C4       0.46267    0.48563    0.86645   1.00
O_3      0.58344    0.47988    0.85876   1.00
C5       0.27502    0.38334    0.82825   1.00
H2       0.26525    0.35471    0.84281   1.00
C5       0.23608    0.33330    0.81109   1.00
H2       0.25672    0.42059    0.82979   1.00
H2       0.24050    0.28687    0.81319   1.00
H2       0.26277    0.35735    0.79663   1.00
C5       0.16052    0.31414    0.81000   1.00
H2       0.13608    0.29526    0.82504   1.00
H2       0.13264    0.27348    0.79850   1.00
H2       0.15515    0.35870    0.80534   1.00
C5       0.59323    0.45216    0.82478   1.00
H2       0.64484    0.45817    0.82664   1.00
H2       0.60076    0.50397    0.82192   1.00
C5       0.55514    0.40461    0.80686   1.00
H2       0.58793    0.42148    0.79312   1.00
C5       0.65398    0.38831    0.28840   1.00
H2       0.66736    0.35074    0.28234   1.00
H2       0.65746    0.38627    0.30516   1.00
C5       0.70564    0.46034    0.28045   1.00
H2       0.75326    0.48345    0.28964   1.00
H2       0.68292    0.49398    0.28116   1.00
O_3      0.30974    0.28734    0.29637   1.00
C4       0.36243    0.20300    0.28488   1.00
C3c      0.43213    0.23944    0.28973   1.00
H1       0.44774    0.25107    0.30540   1.00
C3d      0.34319    0.18753    0.26439   1.00
C3       0.48260    0.26223    0.27455   1.00
O2       0.54948    0.29017    0.28059   1.00
C3       0.39329    0.21127    0.24921   1.00
H1       0.37604    0.20025    0.23366   1.00
C2       0.46399    0.24883    0.25383   1.00
C5       0.26155    0.28534    0.28239   1.00
H2       0.21207    0.27179    0.28977   1.00
H2       0.25137    0.24760    0.27008   1.00
C5       0.29104    0.35595    0.27312   1.00
H2       0.34140    0.37029    0.26624   1.00
H2       0.30040    0.39310    0.28552   1.00
C5       0.24273    0.35769    0.25714   1.00
H2       0.19218    0.34296    0.26388   1.00
H2       0.23522    0.32235    0.24440   1.00
H2       0.26445    0.41005    0.25086   1.00
C5       0.24662    0.08490    0.25954   1.00
C5       0.57991    0.36184    0.28201   1.00
H2       0.24793    0.06760    0.27524   1.00
H2       0.27375    0.06711    0.24928   1.00
H2       0.55296    0.37552    0.29364   1.00
H2       0.57797    0.38573    0.26736   1.00
H2       0.72116    0.45830    0.26448   1.00
H2       0.12395    -0.03071   0.27505   1.00
H2       0.15655    -0.05113   0.25253   1.00
C2       0.20658    0.13902    0.33014   1.00
C3       0.23482    0.09749    0.32538   1.00
O2       0.20206    0.02993    0.33121   1.00
C3       0.23335    0.20299    0.32037   1.00
H1       0.21406    0.23673    0.32406   1.00
C3a      0.28725    0.11965    0.31078   1.00
H1       0.30562    0.08560    0.30647   1.00
C3b      0.28396    0.22391    0.30539   1.00
C4       0.31125    0.18211    0.30045   1.00
O_3      0.27535    0.15634    0.25869   1.00
C5       0.23422    0.02152    0.34841   1.00
H2       0.28878    0.03811    0.34524   1.00
C5       0.19582    -0.05450   0.35368   1.00
H2       0.23193    0.05135    0.36153   1.00
H2       0.21346    -0.08132   0.34329   1.00
H2       0.14092    -0.07439   0.35020   1.00
C5       0.20504    -0.06862   0.37600   1.00
H2       0.26028    -0.04379   0.37964   1.00
H2       0.18125    -0.12441   0.37880   1.00
H2       0.17977    -0.04941   0.38656   1.00
C5       0.17260    0.05288    0.25280   1.00
H2       0.17159    0.06042    0.23614   1.00
H2       0.14993    0.08123    0.26017   1.00
C5       0.13108    -0.02331   0.25831   1.00
H2       0.07957    -0.04651   0.25134   1.00
C5       0.59686    0.37197    0.28482   1.00
H2       0.57438    0.38238    0.27127   1.00
H2       0.57344    0.38238    0.29815   1.00
C5       0.57874    0.29639    0.28468   1.00
H2       0.52632    0.26284    0.29066   1.00
H2       0.61571    0.28985    0.29418   1.00
O_3      0.91822    0.62563    0.31625   1.00
C4       0.84106    0.63791    0.28477   1.00
C3c      0.77506    0.58156    0.28674   1.00
H1       0.74525    0.57663    0.30011   1.00
C3d      0.87868    0.64388    0.26711   1.00
C3       0.74686    0.53042    0.27177   1.00
O2       0.67919    0.48135    0.27356   1.00
C3       0.85126    0.59238    0.25235   1.00
H1       0.88294    0.59795    0.23940   1.00
C2       0.78487    0.53468    0.25420   1.00
C5       0.98500    0.64405    0.31011   1.00
H2       1.02455    0.68410    0.32006   1.00
H2       0.99485    0.66339    0.29420   1.00
C5       0.99166    0.58064    0.31137   1.00
H2       0.95091    0.53998    0.30188   1.00
H2       0.98235    0.56216    0.32736   1.00
C5       1.06230    0.59563    0.30423   1.00
H2       1.10326    0.63652    0.31356   1.00
H2       1.07070    0.61181    0.28806   1.00
H2       1.06673    0.54908    0.30568   1.00
C5       0.94738    0.75346    0.25654   1.00
C5       0.67324    0.42392    0.28390   1.00
H2       0.92146    0.77322    0.26648   1.00
H2       0.92268    0.74201    0.24129   1.00
H2       0.69457    0.43856    0.29953   1.00
H2       0.70126    0.40137    0.27610   1.00
H2       0.57920    0.27841    0.26892   1.00
H2       1.01611    0.89851    0.26405   1.00
H2       0.99828    0.87743    0.23731   1.00
C2       0.93249    0.79105    0.33081   1.00
C3       0.89101    0.79644    0.31578   1.00
O2       0.89294    0.85759    0.31259   1.00
C3       0.94001    0.73266    0.33078   1.00
H1       0.96998    0.72615    0.34238   1.00
C3a      0.85980    0.74497    0.30094   1.00
H1       0.83140    0.75174    0.28886   1.00
C3b      0.91070    0.68266    0.31562   1.00
C4       0.87034    0.68860    0.30051   1.00
O_3      0.94572    0.69558    0.26513   1.00
C5       0.83567    0.85619    0.32155   1.00
H2       0.78712    0.81437    0.31507   1.00
C5       0.84096    0.92499    0.31706   1.00
H2       0.83521    0.84885    0.33828   1.00
H2       0.82303    0.92393    0.30127   1.00
H2       0.89605    0.96448    0.31739   1.00
C5       0.80034    0.94294    0.33218   1.00
H2       0.74666    0.90051    0.33283   1.00
H2       0.80069    0.99031    0.32744   1.00
H2       0.82326    0.95274    0.34770   1.00
C5       1.02190    0.80836    0.25431   1.00
H2       1.04472    0.79347    0.24175   1.00
H2       1.04923    0.80930    0.26847   1.00
C5       1.03021    0.87915    0.25038   1.00
H2       1.08427    0.91637    0.24674   1.00
C5       0.76389    0.39663    0.28597   1.00
H2       0.79802    0.42145    0.27280   1.00
H2       0.79587    0.41956    0.29967   1.00
C5       0.70446    0.41184    0.28550   1.00
H2       0.72071    0.46324    0.29189   1.00
H2       0.66059    0.37282    0.29446   1.00
O_3      0.70540    0.07635    0.31514   1.00
C4       0.79688    0.15897    0.28478   1.00
C3c      0.80360    0.22368    0.28718   1.00
H1       0.82615    0.25246    0.30088   1.00
C3d      0.76825    0.12273    0.26668   1.00
C3       0.78064    0.25182    0.27218   1.00
O2       0.79643    0.31855    0.27448   1.00
C3       0.74415    0.15004    0.25190   1.00
H1       0.72037    0.11933    0.23859   1.00
C2       0.74987    0.21508    0.25418   1.00
C5       0.65969    0.00966    0.30828   1.00
H2       0.66080    -0.03003   0.31801   1.00
H2       0.67162    0.00214    0.29239   1.00
C5       0.58831    -0.00003   0.30897   1.00
H2       0.58769    0.04080    0.29970   1.00
H2       0.57671    0.00696    0.32493   1.00
C5       0.53544    -0.07071   0.30104   1.00
H2       0.53612    -0.11173   0.31013   1.00
H2       0.54560    -0.07686   0.28488   1.00
H2       0.48343    -0.07741   0.30207   1.00
C5       0.81423    0.05851    0.25606   1.00
C5       0.74244    0.32104    0.28446   1.00
H2       0.85857    0.08475    0.26649   1.00
H2       0.82840    0.08483    0.24106   1.00
H2       0.73477    0.29824    0.29991   1.00
H2       0.69294    0.29228    0.27613   1.00
H2       0.68745    0.41227    0.26960   1.00
H2       0.89431    -0.00613   0.26378   1.00
H2       0.89326    0.01400    0.23713   1.00
C2       0.85866    0.06743    0.33076   1.00
C3       0.90638    0.11159    0.31632   1.00
O2       0.96729    0.11263    0.31357   1.00
C3       0.79171    0.05722    0.33019   1.00
H1       0.75448    0.02511    0.34135   1.00
C3a      0.88602    0.14279    0.30150   1.00
H1       0.92204    0.17335    0.28986   1.00
C3b      0.77103    0.08657    0.31504   1.00
C4       0.81823    0.12962    0.30051   1.00
O_3      0.75579    0.05677    0.26423   1.00
C5       1.02076    0.17005    0.32326   1.00
H2       1.02623    0.21847    0.31709   1.00
C5       1.08635    0.16813    0.31922   1.00
H2       1.01182    0.16843    0.33993   1.00
H2       1.10457    0.18805    0.30367   1.00
H2       1.07281    0.11358    0.31913   1.00
C5       1.14261    0.20875    0.33499   1.00
H2       1.15164    0.26162    0.33602   1.00
H2       1.19117    0.21096    0.33061   1.00
H2       1.12846    0.18414    0.35028   1.00
C5       0.79774    -0.01493   0.25329   1.00
H2       0.76169    -0.03752   0.24033   1.00
H2       0.77040    -0.04428   0.26709   1.00
C5       0.86234    -0.01991   0.24979   1.00
H2       0.84796    -0.07307   0.24573   1.00
C5       0.83773    0.65773    0.69801   1.00
H2       0.86111    0.62479    0.69763   1.00
H2       0.88095    0.71104    0.69831   1.00
C5       0.79409    0.64522    0.67871   1.00
H2       0.82670    0.67443    0.66562   1.00
H2       0.75549    0.66110    0.68140   1.00
O_3      0.72544    0.70788    0.79127   1.00
C4       0.79669    0.63714    0.78500   1.00
C3c      0.82211    0.65275    0.76512   1.00
H1       0.85944    0.70466    0.76121   1.00
C3d      0.74881    0.56902    0.78985   1.00
C3       0.79931    0.60226    0.74994   1.00
O2       0.83247    0.61964    0.73155   1.00
C3       0.72503    0.51886    0.77468   1.00
H1       0.68650    0.46779    0.77894   1.00
C2       0.74965    0.53391    0.75444   1.00
C5       0.66463    0.66945    0.80240   1.00
H2       0.66243    0.69721    0.81608   1.00
H2       0.65901    0.61984    0.80742   1.00
C5       0.60544    0.65572    0.78856   1.00
H2       0.60874    0.62969    0.77463   1.00
H2       0.61123    0.70557    0.78379   1.00
C5       0.53691    0.61192    0.79928   1.00
H2       0.53346    0.63740    0.81329   1.00
H2       0.53004    0.56122    0.80343   1.00
H2       0.49432    0.60368    0.78910   1.00
C5       0.75888    0.53795    0.82201   1.00
C5       0.79821    0.64081    0.71801   1.00
H2       0.81022    0.58358    0.82409   1.00
H2       0.76523    0.49504    0.81632   1.00
H2       0.79841    0.68690    0.72409   1.00
H2       0.74377    0.60063    0.71557   1.00
H2       0.76755    0.59030    0.67417   1.00
H2       0.81115    0.57328    0.86285   1.00
H2       0.79404    0.48891    0.85534   1.00
C2       0.85827    0.78968    0.83122   1.00
C3       0.89689    0.75743    0.82763   1.00
O2       0.94359    0.76143    0.84180   1.00
C3       0.80144    0.77276    0.81860   1.00
H1       0.77188    0.79782    0.82061   1.00
C3a      0.87715    0.70833    0.81207   1.00
H1       0.90491    0.68130    0.81026   1.00
C3b      0.78066    0.72234    0.80356   1.00
C4       0.81848    0.68957    0.80021   1.00
O_3      0.71839    0.55190    0.80878   1.00
C5       1.01034    0.80971    0.83567   1.00
H2       1.02318    0.79574    0.82073   1.00
C5       1.05891    0.81025    0.85192   1.00
H2       1.01644    0.86156    0.83442   1.00
H2       1.06625    0.76576    0.84932   1.00
H2       1.03277    0.80169    0.86684   1.00
C5       1.12819    0.87710    0.85218   1.00
H2       1.15103    0.88760    0.83676   1.00
H2       1.16401    0.87337    0.86297   1.00
H2       1.12257    0.92111    0.85731   1.00
C5       0.72290    0.51820    0.84246   1.00
H2       0.67712    0.46648    0.84109   1.00
H2       0.70418    0.55415    0.84598   1.00
C5       0.77026    0.51996    0.85950   1.00
H2       0.74057    0.49854    0.87367   1.00
C5       0.58818    0.43347    0.77439   1.00
H2       0.62760    0.41802    0.77388   1.00
H2       0.58759    0.44941    0.79029   1.00
C5       0.60817    0.49389    0.75971   1.00
H2       0.64619    0.54291    0.76685   1.00
H2       0.56217    0.49690    0.75546   1.00
O_3      0.24907    0.17714    0.78346   1.00
C4       0.36284    0.15836    0.78497   1.00
C3c      0.41993    0.22381    0.78713   1.00
H1       0.42564    0.25302    0.80070   1.00
C3d      0.35687    0.12076    0.76730   1.00
C3       0.46982    0.25295    0.77183   1.00
O2       0.52821    0.31353    0.77606   1.00
C3       0.40578    0.15014    0.75187   1.00
H1       0.39779    0.12031    0.73829   1.00
C2       0.46344    0.21656    0.75371   1.00
C5       0.19973    0.13389    0.76923   1.00
H2       0.14826    0.10302    0.77619   1.00
H2       0.21434    0.09820    0.76220   1.00
C5       0.19553    0.17868    0.75279   1.00
H2       0.24736    0.21093    0.74623   1.00
H2       0.18029    0.21365    0.75996   1.00
C5       0.14455    0.13543    0.73624   1.00
H2       0.09278    0.10275    0.74272   1.00
H2       0.16099    0.10221    0.72860   1.00
H2       0.14107    0.16908    0.72460   1.00
C5       0.30761    0.00615    0.77252   1.00
C5       0.52078    0.36885    0.76943   1.00
H2       0.31380    0.01232    0.78926   1.00
H2       0.35272    0.00523    0.76608   1.00
H2       0.47782    0.36907    0.77765   1.00
H2       0.50966    0.36645    0.75282   1.00
H2       0.63270    0.48845    0.74566   1.00
H2       0.22892    -0.11309   0.79739   1.00
H2       0.28608    -0.12271   0.78010   1.00
C2       0.20559    0.07006    0.82993   1.00
C3       0.26394    0.06304    0.83158   1.00
O2       0.26379    0.01469    0.84435   1.00
C3       0.20233    0.10946    0.81377   1.00
H1       0.15918    0.11728    0.81238   1.00
C3a      0.31626    0.09360    0.81696   1.00
H1       0.35874    0.08451    0.81778   1.00
C3b      0.25341    0.13795    0.79888   1.00
C4       0.31089    0.13005    0.80037   1.00
O_3      0.29915    0.05829    0.76375   1.00
C5       0.29970    0.04569    0.86234   1.00
H2       0.35376    0.08493    0.85907   1.00
C5       0.29819    -0.01081   0.87547   1.00
H2       0.27509    0.07047    0.87072   1.00
H2       0.33772    -0.02216   0.86974   1.00
H2       0.24796    -0.05773   0.87298   1.00
C5       0.30932    0.00767    0.89819   1.00
H2       0.35700    0.05737    0.90022   1.00
H2       0.31363    -0.03200   0.90698   1.00
H2       0.26542    0.01071    0.90479   1.00
C5       0.24364    -0.06148   0.76792   1.00
H2       0.24383    -0.07310   0.75151   1.00
H2       0.19848    -0.05516   0.77050   1.00
C5       0.23857    -0.11980   0.78118   1.00
H2       0.19538    -0.16932   0.77599   1.00
C5       0.57658    0.18341    0.77939   1.00
H2       0.59740    0.23906    0.77743   1.00
H2       0.56463    0.17303    0.79579   1.00
C5       0.51101    0.14382    0.76654   1.00
H2       0.46628    0.14068    0.77457   1.00
H2       0.50101    0.09128    0.76346   1.00
O_3      0.80783    0.06684    0.78668   1.00
C4       0.84171    0.20447    0.78495   1.00
C3c      0.78049    0.20460    0.78820   1.00
H1       0.75465    0.18783    0.80262   1.00
C3d      0.87509    0.22745    0.76615   1.00
C3       0.75119    0.22528    0.77292   1.00
O2       0.69588    0.23195    0.77803   1.00
C3       0.84537    0.24683    0.75077   1.00
H1       0.87159    0.26176    0.73636   1.00
C2       0.78310    0.24656    0.75373   1.00
C5       0.84296    0.05047    0.77207   1.00
H2       0.87133    0.02711    0.77902   1.00
H2       0.88006    0.09670    0.76344   1.00
C5       0.79036    -0.00063   0.75745   1.00
H2       0.76071    0.02197    0.75093   1.00
H2       0.75399    -0.04681   0.76618   1.00
C5       0.82459    -0.01945   0.74056   1.00
H2       0.85468    -0.04161   0.74697   1.00
H2       0.85913    0.02623    0.73138   1.00
H2       0.78526    -0.05796   0.73028   1.00
C5       0.99116    0.28343    0.76827   1.00
C5       0.63483    0.17078    0.77362   1.00
H2       0.99055    0.28952    0.78499   1.00
H2       0.99558    0.32973    0.76082   1.00
H2       0.63195    0.12794    0.78276   1.00
H2       0.63093    0.15605    0.75726   1.00
H2       0.51537    0.17025    0.75182   1.00
H2       1.11457    0.31895    0.79042   1.00
H2       1.12626    0.38257    0.77160   1.00
C2       0.92933    0.13497    0.82996   1.00
C3       0.94424    0.20341    0.83004   1.00
O2       0.99893    0.25209    0.84098   1.00
C3       0.88260    0.08993    0.81540   1.00
H1       0.86876    0.03682    0.81527   1.00
C3a      0.91394    0.22554    0.81544   1.00
H1       0.92886    0.27895    0.81497   1.00
C3b      0.85425    0.11259    0.80049   1.00
C4       0.86992    0.18088    0.80040   1.00
O_3      0.93268    0.22346    0.76164   1.00
C5       0.97619    0.26684    0.85919   1.00
H2       0.94047    0.28635    0.85615   1.00
C5       1.03940    0.32175    0.87022   1.00
H2       0.94977    0.22062    0.86897   1.00
H2       1.05432    0.37206    0.86322   1.00
H2       1.08188    0.31158    0.86716   1.00
C5       1.02828    0.32352    0.89324   1.00
H2       0.98244    0.32830    0.89599   1.00
H2       1.07317    0.36759    0.90043   1.00
H2       1.02183    0.27658    0.90089   1.00
C5       1.05309    0.27730    0.76266   1.00
H2       1.06029    0.28309    0.74592   1.00
H2       1.04181    0.22474    0.76648   1.00
C5       1.11781    0.33020    0.77385   1.00
H2       1.16304    0.32898    0.76784   1.00
C5       -0.04258   0.35536    0.46229   1.00
H2       -0.05037   0.39448    0.47004   1.00
H2       0.01290    0.37374    0.46335   1.00
C5       -0.08396   0.28618    0.47335   1.00
H2       -0.05608   0.28399    0.48697   1.00
H2       -0.09335   0.24365    0.46294   1.00
O_3      -0.02061   0.36708    0.35693   1.00
C4       -0.02913   0.46365    0.38177   1.00
C3c      -0.01706   0.44986    0.40163   1.00
H1       0.03214    0.45618    0.40554   1.00
C3d      -0.09327   0.45603    0.37706   1.00
C3       -0.06816   0.42689    0.41662   1.00
O2       -0.05009   0.42248    0.43625   1.00
C3       -0.14467   0.43193    0.39185   1.00
H1       -0.19380   0.42456    0.38734   1.00
C2       -0.13357   0.41702    0.41195   1.00
C5       -0.07013   0.34201    0.34138   1.00
H2       -0.04694   0.34828    0.32605   1.00
H2       -0.10048   0.36853    0.34144   1.00
C5       -0.11752   0.26644    0.34524   1.00
H2       -0.13922   0.26004    0.36078   1.00
H2       -0.08679   0.24040    0.34495   1.00
C5       -0.17462   0.23551    0.32937   1.00
H2       -0.15330   0.24215    0.31380   1.00
H2       -0.20678   0.25986    0.33012   1.00
H2       -0.20785   0.17996    0.33217   1.00
C5       -0.08912   0.53306    0.35398   1.00
C5       -0.06287   0.35569    0.44016   1.00
H2       -0.03300   0.56626    0.35564   1.00
H2       -0.11492   0.55122    0.36465   1.00
H2       -0.03145   0.34325    0.42988   1.00
H2       -0.11753   0.31613    0.43771   1.00
H2       -0.13389   0.27869    0.47891   1.00
H2       -0.01749   0.63453    0.32304   1.00
H2       -0.08191   0.64614    0.33595   1.00
C2       0.12156    0.52620    0.33495   1.00
C3       0.12053    0.57526    0.34793   1.00
O2       0.15555    0.64345    0.34278   1.00
C3       0.07416    0.45651    0.33849   1.00
H1       0.07478    0.41760    0.32915   1.00
C3a      0.07169    0.55411    0.36361   1.00
H1       0.06904    0.59251    0.37268   1.00
C3b      0.02426    0.43579    0.35368   1.00
C4       0.02262    0.48469    0.36637   1.00
O_3      -0.10942   0.46396    0.35738   1.00
C5       0.21695    0.67778    0.35386   1.00
H2       0.20709    0.67356    0.37054   1.00
C5       0.25201    0.75287    0.34758   1.00
H2       0.25099    0.65673    0.35033   1.00
H2       0.22748    0.77778    0.35588   1.00
H2       0.24112    0.75454    0.33118   1.00
C5       0.32954    0.79102    0.35148   1.00
H2       0.33958    0.78427    0.36757   1.00
H2       0.35223    0.84650    0.34834   1.00
H2       0.35609    0.77216    0.34130   1.00
C5       -0.10900   0.53907    0.33234   1.00
H2       -0.16547   0.51561    0.33163   1.00
H2       -0.09519   0.50826    0.32229   1.00
C5       -0.07342   0.61361    0.32504   1.00
H2       -0.09441   0.61674    0.31010   1.00
C5       0.40236    1.03883    0.46324   1.00
H2       0.45034    1.04795    0.47057   1.00
H2       0.36654    0.98305    0.46434   1.00
C5       0.37366    1.07855    0.47478   1.00
H2       0.34508    1.05008    0.48853   1.00
H2       0.33890    1.08678    0.46474   1.00
O_3      0.38444    1.01753    0.35788   1.00
C4       0.49280    1.02915    0.38176   1.00
C3c      0.46848    1.01633    0.40179   1.00
H1       0.42683    0.96653    0.40584   1.00
C3d      0.54777    1.09408    0.37687   1.00
C3       0.49658    1.06740    0.41679   1.00
O2       0.47586    1.04878    0.43654   1.00
C3       0.57499    1.14543    0.39168   1.00
H1       0.61548    1.19512    0.38704   1.00
C2       0.55051    1.13355    0.41196   1.00
C5       0.40647    1.06712    0.34239   1.00
H2       0.38883    1.04386    0.32710   1.00
H2       0.46324    1.09880    0.34208   1.00
C5       0.37663    1.11279    0.34677   1.00
H2       0.39268    1.13453    0.36229   1.00
H2       0.31996    1.08074    0.34686   1.00
C5       0.40014    1.16989    0.33097   1.00
H2       0.38470    1.14855    0.31543   1.00
H2       0.45655    1.20334    0.33137   1.00
H2       0.37663    1.20183    0.33417   1.00
C5       0.62010    1.09250    0.35308   1.00
C5       0.42092    1.05958    0.44103   1.00
H2       0.59876    1.03656    0.35465   1.00
H2       0.66474    1.11922    0.36347   1.00
H2       0.37659    1.02732    0.43100   1.00
H2       0.43430    1.11383    0.43874   1.00
H2       0.41559    1.12899    0.48022   1.00
H2       0.65028    1.02320    0.32148   1.00
H2       0.72643    1.08893    0.33401   1.00
C2       0.40449    0.87840    0.33497   1.00
C3       0.45633    0.88095    0.34747   1.00
O2       0.49073    0.84761    0.34181   1.00
C3       0.38062    0.92427    0.33898   1.00
H1       0.33977    0.92245    0.33002   1.00
C3a      0.48409    0.92977    0.36315   1.00
H1       0.52640    0.93365    0.37184   1.00
C3b      0.40983    0.97419    0.35416   1.00
C4       0.46208    0.97736    0.36638   1.00
O_3      0.57017    1.11087    0.35706   1.00
C5       0.46607    0.78628    0.35281   1.00
H2       0.47278    0.79605    0.36948   1.00
C5       0.50735    0.75313    0.34595   1.00
H2       0.41096    0.75105    0.34962   1.00
H2       0.55741    0.77880    0.35392   1.00
H2       0.51847    0.76435    0.32950   1.00
C5       0.47015    0.67558    0.34980   1.00
H2       0.45468    0.66507    0.36598   1.00
H2       0.50392    0.65435    0.34622   1.00
H2       0.42410    0.64807    0.33991   1.00
C5       0.64407    1.11302    0.33132   1.00
H2       0.67573    1.16963    0.33061   1.00
H2       0.59843    1.09806    0.32162   1.00
C5       0.68420    1.07933    0.32345   1.00
H2       0.70685    1.10084    0.30840   1.00
C5       0.63683    0.59784    0.46320   1.00
H2       0.59796    0.54990    0.47055   1.00
H2       0.61695    0.63372    0.46430   1.00
C5       0.70529    0.62650    0.47472   1.00
H2       0.70549    0.65514    0.48847   1.00
H2       0.74826    0.66119    0.46466   1.00
O_3      0.63310    0.61543    0.35784   1.00
C4       0.53636    0.50720    0.38176   1.00
C3c      0.54795    0.53159    0.40179   1.00
H1       0.53989    0.57330    0.40583   1.00
C3d      0.54622    0.45217    0.37688   1.00
C3       0.57092    0.50348    0.41679   1.00
O2       0.57313    0.52429    0.43652   1.00
C3       0.57034    0.42493    0.39169   1.00
H1       0.57947    0.38440    0.38706   1.00
C2       0.58304    0.44948    0.41196   1.00
C5       0.66055    0.59329    0.34234   1.00
H2       0.65490    0.61089    0.32705   1.00
H2       0.63540    0.53652    0.34205   1.00
C5       0.73606    0.62305    0.34671   1.00
H2       0.74178    0.60704    0.36222   1.00
H2       0.76075    0.67973    0.34678   1.00
C5       0.76954    0.59943    0.33090   1.00
H2       0.76360    0.61484    0.31536   1.00
H2       0.74652    0.54301    0.33131   1.00
H2       0.82500    0.62289    0.33409   1.00
C5       0.47217    0.37980    0.35312   1.00
C5       0.63892    0.57919    0.44099   1.00
H2       0.43763    0.40121    0.35469   1.00
H2       0.45424    0.33520    0.36352   1.00
H2       0.65101    0.62350    0.43095   1.00
H2       0.67973    0.56573    0.43869   1.00
H2       0.71376    0.58455    0.48016   1.00
H2       0.37260    0.34964    0.32154   1.00
H2       0.36214    0.27349    0.33409   1.00
C2       0.47392    0.59551    0.33497   1.00
C3       0.42463    0.54374    0.34749   1.00
O2       0.35687    0.50939    0.34186   1.00
C3       0.54366    0.61931    0.33896   1.00
H1       0.58268    0.66010    0.32998   1.00
C3a      0.44570    0.51598    0.36317   1.00
H1       0.40727    0.47373    0.37187   1.00
C3b      0.56437    0.59010    0.35414   1.00
C4       0.51529    0.53792    0.36638   1.00
O_3      0.54051    0.42969    0.35707   1.00
C5       0.32030    0.53415    0.35285   1.00
H2       0.32341    0.52749    0.36953   1.00
C5       0.24584    0.49292    0.34602   1.00
H2       0.34024    0.58927    0.34965   1.00
H2       0.22143    0.44289    0.35400   1.00
H2       0.24586    0.48174    0.32957   1.00
C5       0.20559    0.53022    0.34987   1.00
H2       0.21062    0.54575    0.36605   1.00
H2       0.15056    0.49649    0.34631   1.00
H2       0.22414    0.57624    0.33997   1.00
C5       0.46861    0.35575    0.33136   1.00
H2       0.49350    0.32404    0.33065   1.00
H2       0.49930    0.40135    0.32165   1.00
C5       0.39476    0.31567    0.32352   1.00
H2       0.39354    0.29296    0.30847   1.00
C5       0.33116    0.38604    0.29304   1.00
H2       0.37620    0.43673    0.28979   1.00
H2       0.34721    0.34811    0.28960   1.00
C5       0.31155    0.38216    0.31569   1.00
H2       0.34442    0.36993    0.32531   1.00
H2       0.25727    0.34221    0.31792   1.00
O_3      0.07867    0.24134    0.21912   1.00
C4       0.20425    0.36310    0.21495   1.00
C3c      0.24448    0.36451    0.23135   1.00
H1       0.25944    0.32616    0.23249   1.00
C3d      0.18613    0.41412    0.21360   1.00
C3       0.26518    0.41446    0.24664   1.00
O2       0.31123    0.41760    0.26084   1.00
C3       0.20556    0.46314    0.22900   1.00
H1       0.18843    0.49979    0.22769   1.00
C2       0.24562    0.46487    0.24581   1.00
C5       0.02244    0.24942    0.21419   1.00
H2       -0.01082   0.21248    0.20239   1.00
H2       0.03958    0.30203    0.20855   1.00
C5       -0.01935   0.23699    0.23338   1.00
H2       0.01438    0.27262    0.24535   1.00
H2       -0.03673   0.18413    0.23876   1.00
C5       -0.08047   0.24717    0.22953   1.00
H2       -0.11412   0.21208    0.21748   1.00
H2       -0.06310   0.30060    0.22483   1.00
H2       -0.11123   0.23640    0.24360   1.00
C5       0.18038    0.44630    0.18121   1.00
C5       0.27616    0.37847    0.27805   1.00
H2       0.20782    0.42110    0.17495   1.00
H2       0.21831    0.50069    0.18455   1.00
H2       0.24313    0.32386    0.27371   1.00
H2       0.24257    0.39583    0.28515   1.00
H2       0.31926    0.43220    0.32123   1.00
H2       0.17293    0.42260    0.13800   1.00
H2       0.21119    0.51244    0.14438   1.00
C2       0.13330    0.20813    0.16922   1.00
C3       0.19806    0.26718    0.16734   1.00
O2       0.23148    0.28396    0.14892   1.00
C3       0.09464    0.20030    0.18691   1.00
H1       0.04565    0.15488    0.18906   1.00
C3a      0.22173    0.31730    0.18269   1.00
H1       0.26967    0.36396    0.18048   1.00
C3b      0.11736    0.25122    0.20185   1.00
C4       0.18128    0.31037    0.19980   1.00
O_3      0.14235    0.41200    0.19860   1.00
C5       0.28309    0.26636    0.14878   1.00
H2       0.32135    0.29357    0.16101   1.00
C5       0.31830    0.28753    0.12809   1.00
H2       0.26109    0.21038    0.15087   1.00
H2       0.35489    0.34341    0.12836   1.00
H2       0.27858    0.27902    0.11666   1.00
C5       0.35503    0.24816    0.12221   1.00
H2       0.39057    0.25280    0.13454   1.00
H2       0.38469    0.26887    0.10795   1.00
H2       0.31787    0.19306    0.11935   1.00
C5       0.13040    0.44377    0.16532   1.00
H2       0.11180    0.47881    0.17010   1.00
H2       0.08533    0.39129    0.16518   1.00
C5       0.16273    0.46267    0.14406   1.00
H2       0.12738    0.46723    0.13332   1.00
C5       0.38880    0.57982    0.21947   1.00
H2       0.40212    0.56482    0.23405   1.00
H2       0.40371    0.55561    0.20739   1.00
C5       0.31110    0.55273    0.21876   1.00
H2       0.28289    0.49804    0.21423   1.00
H2       0.29971    0.58285    0.20771   1.00
O_3      0.61626    0.90063    0.18062   1.00
C4       0.63795    0.84118    0.21524   1.00
C3c      0.58718    0.77208    0.21476   1.00
H1       0.58669    0.73986    0.20259   1.00
C3d      0.63826    0.88206    0.23140   1.00
C3       0.53593    0.74373    0.22971   1.00
O2       0.49310    0.67417    0.22962   1.00
C3       0.58654    0.85429    0.24609   1.00
H1       0.58748    0.88820    0.25779   1.00
C2       0.53439    0.78470    0.24571   1.00
C5       0.62649    0.96646    0.18442   1.00
H2       0.66417    1.00528    0.17378   1.00
H2       0.64480    0.98314    0.20023   1.00
C5       0.55842    0.96339    0.18158   1.00
H2       0.52028    0.92324    0.19180   1.00
H2       0.54095    0.94732    0.16569   1.00
C5       0.56444    1.03261    0.18614   1.00
H2       0.60279    1.07304    0.17609   1.00
H2       0.57959    1.04760    0.20221   1.00
H2       0.51456    1.02978    0.18356   1.00
C5       0.74464    0.96368    0.24141   1.00
C5       0.43356    0.65751    0.21839   1.00
H2       0.76961    0.93952    0.23299   1.00
H2       0.73499    0.94413    0.25731   1.00
H2       0.44707    0.67430    0.20232   1.00
H2       0.40547    0.68256    0.22454   1.00
H2       0.29111    0.55554    0.23402   1.00
H2       0.88960    1.04465    0.23422   1.00
H2       0.86819    1.03363    0.26104   1.00
C2       0.79053    0.93218    0.16904   1.00
C3       0.80100    0.89946    0.18574   1.00
O2       0.86541    0.91071    0.19011   1.00
C3       0.72760    0.93100    0.16755   1.00
H1       0.71731    0.95404    0.15468   1.00
C3a      0.74982    0.86824    0.20066   1.00
H1       0.76016    0.84683    0.21393   1.00
C3b      0.67770    0.90182    0.18274   1.00
C4       0.68861    0.87024    0.19949   1.00
O_3      0.68396    0.95146    0.23174   1.00
C5       0.87210    0.85510    0.18347   1.00
H2       0.83394    0.80669    0.19099   1.00
C5       0.94410    0.87090    0.18915   1.00
H2       0.86529    0.84847    0.16673   1.00
H2       0.94453    0.85918    0.20554   1.00
H2       0.97858    0.92692    0.18744   1.00
C5       0.96941    0.83137    0.17615   1.00
H2       0.93167    0.77594    0.17677   1.00
H2       1.01934    0.83973    0.18182   1.00
H2       0.97757    0.84898    0.16002   1.00
C5       0.79271    1.04049    0.24178   1.00
H2       0.77317    1.06328    0.25302   1.00
H2       0.79080    1.06135    0.22664   1.00
C5       0.86644    1.05916    0.24682   1.00
H2       0.89844    1.11514    0.24904   1.00
C5       0.39630    0.76334    0.21397   1.00
H2       0.42124    0.79752    0.22713   1.00
H2       0.41920    0.79523    0.20026   1.00
C5       0.41137    0.70381    0.21447   1.00
H2       0.46272    0.71994    0.20805   1.00
H2       0.37225    0.65994    0.20553   1.00
O_3      0.07609    0.70531    0.18492   1.00
C4       0.15898    0.79688    0.21522   1.00
C3c      0.22361    0.80346    0.21280   1.00
H1       0.25234    0.82589    0.19909   1.00
C3d      0.12280    0.76840    0.23334   1.00
C3       0.25175    0.78049    0.22780   1.00
O2       0.31844    0.79614    0.22548   1.00
C3       0.15011    0.74430    0.24812   1.00
H1       0.11945    0.72064    0.26145   1.00
C2       0.21508    0.74987    0.24582   1.00
C5       0.00940    0.65973    0.19181   1.00
H2       -0.03029   0.66088    0.18209   1.00
H2       0.00200    0.67178    0.20770   1.00
C5       -0.00043   0.58829    0.19115   1.00
H2       0.04040    0.58763    0.20041   1.00
H2       0.00645    0.57657    0.17520   1.00
C5       -0.07111   0.53556    0.19912   1.00
H2       -0.11213   0.53628    0.19004   1.00
H2       -0.07714   0.54584    0.21527   1.00
H2       -0.07792   0.48351    0.19811   1.00
C5       0.05880    0.81463    0.24396   1.00
C5       0.32075    0.74203    0.21552   1.00
H2       0.08506    0.85890    0.23351   1.00
H2       0.08521    0.82884    0.25895   1.00
H2       0.29788    0.73432    0.20007   1.00
H2       0.29196    0.69260    0.22387   1.00
H2       0.41185    0.68688    0.23037   1.00
H2       -0.00564   0.89488    0.23623   1.00
H2       0.01461    0.89394    0.26287   1.00
C2       0.06742    0.85866    0.16925   1.00
C3       0.11172    0.90642    0.18365   1.00
O2       0.11289    0.96741    0.18638   1.00
C3       0.05708    0.79167    0.16984   1.00
H1       0.02488    0.75440    0.15871   1.00
C3a      0.14291    0.88606    0.19847   1.00
H1       0.17357    0.92212    0.21009   1.00
C3b      0.08644    0.77099    0.18499   1.00
C4       0.12962    0.81823    0.19949   1.00
O_3      0.05690    0.75608    0.23581   1.00
C5       0.17032    1.02076    0.17666   1.00
H2       0.21874    1.02617    0.18281   1.00
C5       0.16856    1.08644    0.18067   1.00
H2       0.16860    1.01172    0.15999   1.00
H2       0.18859    1.10473    0.19621   1.00
H2       0.11405    1.07301    0.18078   1.00
C5       0.20918    1.14259    0.16487   1.00
H2       0.26200    1.15151    0.16382   1.00
H2       0.21151    1.19122    0.16923   1.00
H2       0.18449    1.12840    0.14959   1.00
C5       -0.01458   0.79830    0.24676   1.00
H2       -0.03715   0.76233    0.25974   1.00
H2       -0.04403   0.77091    0.23298   1.00
C5       -0.01939   0.86299    0.25024   1.00
H2       -0.07251   0.84873    0.25431   1.00
C5       1.02162    0.59006    0.53270   1.00
H2       1.06487    0.64326    0.53342   1.00
H2       0.97463    0.59382    0.53367   1.00
C5       1.02387    0.55738    0.51231   1.00
H2       1.00114    0.57296    0.49991   1.00
H2       0.99520    0.50080    0.51364   1.00
O_3      0.93067    0.39873    0.62161   1.00
C4       1.02966    0.53774    0.61836   1.00
C3c      1.02026    0.55846    0.59913   1.00
H1       0.97331    0.55800    0.59576   1.00
C3d      1.09161    0.53966    0.62255   1.00
C3       1.07046    0.57908    0.58393   1.00
O2       1.06121    0.60648    0.56640   1.00
C3       1.14116    0.55892    0.60731   1.00
H1       1.18683    0.55727    0.61100   1.00
C2       1.13216    0.57931    0.58772   1.00
C5       0.95572    0.36008    0.63131   1.00
H2       0.92375    0.33097    0.64454   1.00
H2       1.00906    0.39345    0.63674   1.00
C5       0.95473    0.30970    0.61590   1.00
H2       0.98510    0.33867    0.60243   1.00
H2       0.90116    0.27626    0.61074   1.00
C5       0.98357    0.26705    0.62503   1.00
H2       0.95378    0.23835    0.63858   1.00
H2       1.03781    0.30018    0.62955   1.00
H2       0.98104    0.22951    0.61369   1.00
C5       1.12779    0.56763    0.65525   1.00
C5       1.02849    0.55480    0.55163   1.00
H2       1.09156    0.58622    0.65834   1.00
H2       1.17747    0.61166    0.65028   1.00
H2       0.97712    0.51529    0.55715   1.00
H2       1.05781    0.52839    0.54804   1.00
H2       1.07755    0.57461    0.50764   1.00
H2       1.10184    0.58511    0.69709   1.00
H2       1.19100    0.63790    0.69009   1.00
C2       0.87593    0.46725    0.66445   1.00
C3       0.92283    0.53763    0.66242   1.00
O2       0.93110    0.58215    0.67790   1.00
C3       0.87910    0.42178    0.65036   1.00
H1       0.84281    0.36781    0.65117   1.00
C3a      0.97236    0.56060    0.64690   1.00
H1       1.01033    0.61416    0.64627   1.00
C3b      0.92978    0.44454    0.63535   1.00
C4       0.97703    0.51440    0.63355   1.00
O_3      1.10131    0.51493    0.64068   1.00
C5       0.89659    0.61785    0.67324   1.00
H2       0.91629    0.64770    0.65891   1.00
C5       0.90914    0.66670    0.69088   1.00
H2       0.84075    0.58213    0.67156   1.00
H2       0.96074    0.71229    0.68904   1.00
H2       0.91070    0.64074    0.70506   1.00
C5       0.85448    0.68813    0.69245   1.00
H2       0.84986    0.70898    0.67765   1.00
H2       0.86838    0.72791    0.70432   1.00
H2       0.80380    0.64415    0.69686   1.00
C5       1.13879    0.53849    0.67477   1.00
H2       1.18334    0.53091    0.67263   1.00
H2       1.09342    0.48712    0.67728   1.00
C5       1.14962    0.58479    0.69315   1.00
H2       1.16449    0.56573    0.70663   1.00
C5       0.56245    -0.01927   0.53220   1.00
H2       0.57401    -0.06148   0.53258   1.00
H2       0.61254    0.02858    0.53295   1.00
C5       0.52547    -0.02248   0.51214   1.00
H2       0.56267    0.00119    0.49950   1.00
H2       0.49632    0.00481    0.51389   1.00
O_3      0.46455    0.06640    0.62253   1.00
C4       0.50809    -0.02965   0.61836   1.00
C3c      0.53688    -0.01931   0.59890   1.00
H1       0.58231    0.02838    0.59535   1.00
C3d      0.44945    -0.09254   0.62277   1.00
C3       0.50727    -0.06954   0.58371   1.00
O2       0.54282    -0.05916   0.56589   1.00
C3       0.41910    -0.14215   0.60756   1.00
H1       0.37281    -0.18861   0.61144   1.00
C2       0.44712    -0.13223   0.58774   1.00
C5       0.40143    0.03965    0.63270   1.00
H2       0.40433    0.07110    0.64608   1.00
H2       0.38328    -0.01349   0.63802   1.00
C5       0.35005    0.03912    0.61777   1.00
H2       0.34855    0.00930    0.60415   1.00
H2       0.36836    0.09249    0.61271   1.00
C5       0.27909    0.00839    0.62742   1.00
H2       0.28030    0.03765    0.64112   1.00
H2       0.25975    -0.04566   0.63184   1.00
H2       0.24258    0.00982    0.61644   1.00
C5       0.44482    -0.12858   0.65534   1.00
C5       0.52136    -0.02750   0.55149   1.00
H2       0.49956    -0.09120   0.65810   1.00
H2       0.44029    -0.17760   0.65015   1.00
H2       0.53220    0.02338    0.55717   1.00
H2       0.46544    -0.05811   0.54826   1.00
H2       0.48982    -0.07642   0.50751   1.00
H2       0.49135    -0.10192   0.69689   1.00
H2       0.45673    -0.19074   0.68975   1.00
C2       0.59129    0.12395    0.66449   1.00
C3       0.61647    0.07859    0.66198   1.00
O2       0.65474    0.07153    0.67706   1.00
C3       0.54090    0.11935    0.65084   1.00
H1       0.52185    0.15446    0.65203   1.00
C3a      0.58987    0.02912    0.64644   1.00
H1       0.60687    -0.00772   0.64545   1.00
C3b      0.51301    0.06869    0.63583   1.00
C4       0.53733    0.02297    0.63355   1.00
O_3      0.41621    -0.10330   0.64117   1.00
C5       0.72457    0.10777    0.67192   1.00
H2       0.73438    0.08880    0.65739   1.00
C5       0.76320    0.09649    0.68914   1.00
H2       0.74307    0.16334    0.67036   1.00
H2       0.75860    0.04555    0.68707   1.00
H2       0.73642    0.09398    0.70356   1.00
C5       0.83882    0.15269    0.69028   1.00
H2       0.86339    0.15814    0.67527   1.00
H2       0.86648    0.13978    0.70182   1.00
H2       0.84435    0.20272    0.69491   1.00
C5       0.40594    -0.14082   0.67517   1.00
H2       0.35427    -0.18630   0.67328   1.00
H2       0.39859    -0.09640   0.67799   1.00
C5       0.44373    -0.15043   0.69314   1.00
H2       0.41081    -0.16624   0.70686   1.00
C5       0.41791    0.43728    0.53222   1.00
H2       0.36417    0.42580    0.53262   1.00
H2       0.41560    0.38716    0.53298   1.00
C5       0.45164    0.47418    0.51214   1.00
H2       0.43801    0.43693    0.49952   1.00
H2       0.50809    0.50328    0.51387   1.00
O_3      0.60182    0.53530    0.62249   1.00
C4       0.46225    0.49191    0.61836   1.00
C3c      0.44370    0.46306    0.59891   1.00
H1       0.44588    0.41758    0.59536   1.00
C3d      0.45810    0.55061    0.62276   1.00
C3       0.42309    0.49267    0.58371   1.00
O2       0.39782    0.45707    0.56591   1.00
C3       0.43885    0.58096    0.60755   1.00
H1       0.43875    0.62730    0.61142   1.00
C2       0.42064    0.55288    0.58774   1.00
C5       0.63829    0.59845    0.63264   1.00
H2       0.66686    0.59555    0.64601   1.00
H2       0.60337    0.61668    0.63796   1.00
C5       0.68913    0.64975    0.61769   1.00
H2       0.66076    0.65123    0.60408   1.00
H2       0.72411    0.63135    0.61263   1.00
C5       0.72946    0.72073    0.62732   1.00
H2       0.75753    0.71952    0.64101   1.00
H2       0.69482    0.74015    0.63174   1.00
H2       0.76739    0.75718    0.61632   1.00
C5       0.42683    0.55539    0.65534   1.00
C5       0.45087    0.47842    0.55149   1.00
H2       0.40942    0.50065    0.65811   1.00
H2       0.38237    0.55998    0.65016   1.00
H2       0.49089    0.46754    0.55717   1.00
H2       0.47624    0.53434    0.54825   1.00
H2       0.43340    0.50987    0.50752   1.00
H2       0.40707    0.50900    0.69690   1.00
H2       0.35293    0.54370    0.68977   1.00
C2       0.53266    0.40871    0.66448   1.00
C3       0.46212    0.38360    0.66199   1.00
O2       0.41683    0.34542    0.67709   1.00
C3       0.57842    0.45902    0.65082   1.00
H1       0.63258    0.47801    0.65199   1.00
C3a      0.43924    0.41020    0.64646   1.00
H1       0.38542    0.39326    0.64548   1.00
C3b      0.55567    0.48692    0.63581   1.00
C4       0.48563    0.46267    0.63355   1.00
O_3      0.48068    0.58390    0.64115   1.00
C5       0.38314    0.27557    0.67198   1.00
H2       0.35432    0.26574    0.65745   1.00
C5       0.33327    0.23704    0.68922   1.00
H2       0.42015    0.25700    0.67041   1.00
H2       0.28697    0.24170    0.68716   1.00
H2       0.35762    0.26386    0.70363   1.00
C5       0.31376    0.16139    0.69037   1.00
H2       0.29457    0.13679    0.67537   1.00
H2       0.27323    0.13382    0.70193   1.00
H2       0.35824    0.15582    0.69500   1.00
C5       0.45359    0.59433    0.67515   1.00
H2       0.45984    0.64603    0.67326   1.00
H2       0.50534    0.60163    0.67796   1.00
C5       0.40622    0.55664    0.69315   1.00
H2       0.42343    0.58961    0.70685   1.00
C5       0.31050    -0.32371   0.12356   1.00
H2       0.26959    -0.32960   0.11305   1.00
H2       0.29082    -0.32512   0.13909   1.00
C5       0.32423    -0.38355   0.12050   1.00
H2       0.28597    -0.42973   0.12882   1.00
H2       0.37616    -0.36899   0.12607   1.00
O_3      0.57991    0.00446    0.14112   1.00
C4       0.46248    -0.02898   0.11815   1.00
C3c      0.41604    -0.09772   0.12244   1.00
H1       0.39617    -0.11254   0.13764   1.00
C3d      0.48701    -0.01060   0.09818   1.00
C3       0.39527    -0.14838   0.10737   1.00
O2       0.34356    -0.21299   0.11205   1.00
C3       0.46744    -0.06109   0.08323   1.00
H1       0.48945    -0.04490   0.06831   1.00
C2       0.42109    -0.13096   0.08736   1.00
C5       0.64082    0.04703    0.13048   1.00
H2       0.67505    0.09453    0.13905   1.00
H2       0.62989    0.06185    0.11541   1.00
C5       0.67779    0.00727    0.12733   1.00
H2       0.64289    -0.04112   0.11928   1.00
H2       0.68900    -0.00670   0.14248   1.00
C5       0.74371    0.04913    0.11520   1.00
H2       0.77861    0.09775    0.12308   1.00
H2       0.73237    0.06109    0.09980   1.00
H2       0.77078    0.01983    0.11343   1.00
C5       0.50538    0.09401    0.08854   1.00
C5       0.37133    -0.25291   0.11914   1.00
H2       0.47590    0.09716    0.10157   1.00
H2       0.47043    0.07191    0.07527   1.00
H2       0.40143    -0.23014   0.13325   1.00
H2       0.40619    -0.25658   0.10782   1.00
H2       0.31977    -0.39845   0.10416   1.00
H2       0.52282    0.22605    0.09847   1.00
H2       0.49031    0.19850    0.07294   1.00
C2       0.53345    0.12621    0.16381   1.00
C3       0.47244    0.10775    0.15322   1.00
O2       0.44443    0.14963    0.15362   1.00
C3       0.56805    0.09003    0.15964   1.00
H1       0.61393    0.10172    0.16786   1.00
C3a      0.44857    0.05549    0.13853   1.00
H1       0.40393    0.04462    0.12974   1.00
C3b      0.54537    0.03959    0.14456   1.00
C4       0.48529    0.02202    0.13383   1.00
O_3      0.53668    0.05548    0.09352   1.00
C5       0.38879    0.12358    0.16717   1.00
H2       0.34822    0.07131    0.16264   1.00
C5       0.36000    0.17199    0.16648   1.00
H2       0.40543    0.12144    0.18294   1.00
H2       0.32746    0.16001    0.15272   1.00
H2       0.40379    0.22460    0.16436   1.00
C5       0.31927    0.16799    0.18568   1.00
H2       0.27919    0.11421    0.18845   1.00
H2       0.29443    0.19948    0.18391   1.00
H2       0.35321    0.18819    0.19927   1.00
C5       0.56174    0.16571    0.08318   1.00
H2       0.58340    0.16393    0.06818   1.00
H2       0.60344    0.18169    0.09453   1.00
C5       0.53588    0.21697    0.08288   1.00
H2       0.57625    0.26684    0.07689   1.00
C5       1.05458    0.38670    0.04079   1.00
H2       1.05858    0.43017    0.03188   1.00
H2       1.00019    0.34604    0.03994   1.00
C5       1.10070    0.36191    0.03116   1.00
H2       1.07487    0.32782    0.01800   1.00
H2       1.11325    0.33370    0.04259   1.00
O_3      1.02917    0.39784    0.14577   1.00
C4       1.02907    0.49274    0.11821   1.00
C3c      1.01954    0.46278    0.09896   1.00
H1       0.97234    0.41665    0.09552   1.00
C3d      1.09056    0.55339    0.12229   1.00
C3       1.07072    0.49103    0.08399   1.00
O2       1.05460    0.46374    0.06478   1.00
C3       1.14213    0.58092    0.10755   1.00
H1       1.18935    0.62614    0.11161   1.00
C2       1.13363    0.55087    0.08808   1.00
C5       1.07805    0.42910    0.16132   1.00
H2       1.05493    0.41421    0.17672   1.00
H2       1.10441    0.48582    0.16012   1.00
C5       1.13024    0.40609    0.15896   1.00
H2       1.15196    0.41926    0.14336   1.00
H2       1.10347    0.34948    0.16037   1.00
C5       1.18686    0.43977    0.17490   1.00
H2       1.16547    0.42723    0.19051   1.00
H2       1.21516    0.49618    0.17306   1.00
H2       1.22370    0.42119    0.17322   1.00
C5       1.07868    0.62703    0.14320   1.00
C5       1.07310    0.41298    0.06258   1.00
H2       1.02232    0.59962    0.14135   1.00
H2       1.10185    0.66878    0.13173   1.00
H2       1.04407    0.37069    0.07357   1.00
H2       1.12864    0.43301    0.06541   1.00
H2       1.14902    0.40564    0.02517   1.00
H2       1.00015    0.65519    0.17214   1.00
H2       1.06070    0.73051    0.15813   1.00
C2       0.87854    0.40512    0.16509   1.00
C3       0.87537    0.44982    0.15078   1.00
O2       0.83557    0.47901    0.15447   1.00
C3       0.93019    0.38777    0.16289   1.00
H1       0.93293    0.35232    0.17328   1.00
C3a      0.92425    0.47727    0.13510   1.00
H1       0.92349    0.51442    0.12496   1.00
C3b      0.98003    0.41684    0.14767   1.00
C4       0.97744    0.46209    0.13365   1.00
O_3      1.10453    0.58202    0.14147   1.00
C5       0.77439    0.44511    0.14326   1.00
H2       0.78470    0.44776    0.12663   1.00
C5       0.73388    0.48104    0.14789   1.00
H2       0.74391    0.39048    0.14781   1.00
H2       0.75514    0.52838    0.13861   1.00
H2       0.74354    0.49754    0.16405   1.00
C5       0.65679    0.43551    0.14395   1.00
H2       0.64841    0.41515    0.12823   1.00
H2       0.62995    0.46507    0.14583   1.00
H2       0.63300    0.39220    0.15496   1.00
C5       1.09630    0.65815    0.16435   1.00
H2       1.15212    0.69495    0.16497   1.00
H2       1.08573    0.61678    0.17540   1.00
C5       1.05531    0.69324    0.17001   1.00
H2       1.07447    0.72132    0.18454   1.00
C5       0.59718    0.63564    0.03667   1.00
H2       0.54909    0.59681    0.02938   1.00
H2       0.63287    0.61553    0.03557   1.00
C5       0.62596    0.70398    0.02508   1.00
H2       0.65438    0.70388    0.01131   1.00
H2       0.66089    0.74702    0.03508   1.00
O_3      0.61589    0.63312    0.14202   1.00
C4       0.50720    0.53636    0.11824   1.00
C3c      0.53136    0.54762    0.09819   1.00
H1       0.57288    0.53930    0.09413   1.00
C3d      0.45239    0.54656    0.12315   1.00
C3       0.50326    0.57059    0.08319   1.00
O2       0.52380    0.57246    0.06344   1.00
C3       0.42517    0.57068    0.10834   1.00
H1       0.38482    0.58009    0.11298   1.00
C2       0.44950    0.58305    0.08804   1.00
C5       0.59410    0.66092    0.15751   1.00
H2       0.61181    0.65536    0.17280   1.00
H2       0.53735    0.63598    0.15786   1.00
C5       0.62410    0.73641    0.15307   1.00
H2       0.60798    0.74203    0.13756   1.00
H2       0.68077    0.76090    0.15294   1.00
C5       0.60087    0.77028    0.16886   1.00
H2       0.61639    0.76444    0.18440   1.00
H2       0.54447    0.74746    0.16850   1.00
H2       0.62450    0.82571    0.16562   1.00
C5       0.38012    0.47297    0.14701   1.00
C5       0.57883    0.63809    0.05889   1.00
H2       0.40130    0.43823    0.14545   1.00
H2       0.33542    0.45508    0.13665   1.00
H2       0.62321    0.65013    0.06889   1.00
H2       0.56562    0.67909    0.06116   1.00
H2       0.58409    0.71261    0.01965   1.00
H2       0.34991    0.37370    0.17868   1.00
H2       0.27376    0.36341    0.16619   1.00
C2       0.59553    0.47393    0.16503   1.00
C3       0.54351    0.42462    0.15258   1.00
O2       0.50899    0.35693    0.15829   1.00
C3       0.61956    0.54368    0.16097   1.00
H1       0.66053    0.58270    0.16989   1.00
C3a      0.51574    0.44568    0.13689   1.00
H1       0.47331    0.40725    0.12825   1.00
C3b      0.59034    0.56439    0.14579   1.00
C4       0.53792    0.51529    0.13362   1.00
O_3      0.43017    0.54119    0.14297   1.00
C5       0.53340    0.32003    0.14730   1.00
H2       0.52658    0.32297    0.13063   1.00
C5       0.49200    0.24567    0.15422   1.00
H2       0.58852    0.33979    0.15046   1.00
H2       0.44188    0.22134    0.14629   1.00
H2       0.48102    0.24595    0.17068   1.00
C5       0.52898    0.20511    0.15038   1.00
H2       0.54431    0.20988    0.13418   1.00
H2       0.49511    0.15015    0.15400   1.00
H2       0.57509    0.22361    0.16024   1.00
C5       0.35636    0.46979    0.16878   1.00
H2       0.32484    0.49488    0.16949   1.00
H2       0.40210    0.50045    0.17844   1.00
C5       0.31611    0.39604    0.17671   1.00
H2       0.29361    0.39511    0.19177   1.00
C5       0.34322    0.65968    0.70943   1.00
H2       0.33458    0.61607    0.71916   1.00
H2       0.34087    0.64227    0.69354   1.00
C5       0.28632    0.67723    0.71330   1.00
H2       0.23939    0.64236    0.70465   1.00
H2       0.30395    0.73075    0.70864   1.00
O_3      0.67823    0.91861    0.69428   1.00
C4       0.63764    0.79578    0.71518   1.00
C3c      0.56830    0.75325    0.71060   1.00
H1       0.55299    0.73647    0.69516   1.00
C3d      0.65659    0.81626    0.73544   1.00
C3       0.51771    0.73252    0.72569   1.00
O2       0.45201    0.68436    0.72057   1.00
C3       0.60624    0.79679    0.75043   1.00
H1       0.62303    0.81573    0.76562   1.00
C2       0.53582    0.75440    0.74602   1.00
C5       0.72314    0.97663    0.70572   1.00
H2       0.77144    1.01028    0.69742   1.00
H2       0.73640    0.96172    0.72042   1.00
C5       0.68718    1.01679    0.70995   1.00
H2       0.63798    0.98260    0.71774   1.00
H2       0.67476    1.03195    0.69518   1.00
C5       0.73171    1.07975    0.72300   1.00
H2       0.78112    1.11389    0.71538   1.00
H2       0.74217    1.06454    0.73804   1.00
H2       0.70520    1.10926    0.72557   1.00
C5       0.75856    0.82655    0.74448   1.00
C5       0.41549    0.71687    0.71441   1.00
H2       0.75990    0.79831    0.73085   1.00
H2       0.73462    0.78966    0.75723   1.00
H2       0.43977    0.74888    0.70071   1.00
H2       0.41404    0.75100    0.72643   1.00
H2       0.27131    0.67071    0.72966   1.00
H2       0.88734    0.83755    0.73372   1.00
H2       0.85805    0.80135    0.75881   1.00
C2       0.79308    0.86674    0.66960   1.00
C3       0.77098    0.80323    0.67912   1.00
O2       0.80953    0.77168    0.67779   1.00
C3       0.76040    0.90403    0.67477   1.00
H1       0.77492    0.95197    0.66738   1.00
C3a      0.71865    0.77949    0.69380   1.00
H1       0.70500    0.73266    0.70178   1.00
C3b      0.70989    0.88132    0.68984   1.00
C4       0.68870    0.81869    0.69951   1.00
O_3      0.72357    0.86223    0.74047   1.00
C5       0.78097    0.71851    0.66339   1.00
H2       0.72773    0.67937    0.66759   1.00
C5       0.82575    0.68553    0.66307   1.00
H2       0.78035    0.73860    0.64801   1.00
H2       0.81172    0.65035    0.67627   1.00
H2       0.87940    0.72678    0.66558   1.00
C5       0.81958    0.64726    0.64313   1.00
H2       0.76507    0.61003    0.64006   1.00
H2       0.84827    0.61928    0.64413   1.00
H2       0.84162    0.68331    0.63006   1.00
C5       0.83139    0.87891    0.75030   1.00
H2       0.83080    0.89868    0.76572   1.00
H2       0.84984    0.92283    0.73965   1.00
C5       0.87912    0.84883    0.74962   1.00
H2       0.92981    0.88605    0.75595   1.00
C5       0.42762    0.60027    0.72235   1.00
H2       0.40868    0.63683    0.72377   1.00
H2       0.44111    0.60112    0.70612   1.00
C5       0.49141    0.62402    0.73588   1.00
H2       0.53783    0.66438    0.72815   1.00
H2       0.49889    0.58013    0.73942   1.00
O_3      0.18680    0.25522    0.71454   1.00
C4       0.15831    0.36280    0.71505   1.00
C3c      0.22121    0.42267    0.71216   1.00
H1       0.24839    0.43058    0.69803   1.00
C3d      0.12326    0.35393    0.73346   1.00
C3       0.25046    0.47262    0.72745   1.00
O2       0.30782    0.53338    0.72263   1.00
C3       0.15285    0.40296    0.74886   1.00
H1       0.12521    0.39281    0.76299   1.00
C2       0.21677    0.46345    0.74628   1.00
C5       0.14860    0.20438    0.72905   1.00
H2       0.11929    0.15271    0.72211   1.00
H2       0.11190    0.21551    0.73710   1.00
C5       0.19843    0.20371    0.74436   1.00
H2       0.22906    0.25585    0.75088   1.00
H2       0.23441    0.19192    0.73619   1.00
C5       0.16078    0.15128    0.76117   1.00
H2       0.12972    0.09916    0.75474   1.00
H2       0.12661    0.16434    0.76979   1.00
H2       0.19810    0.15047    0.77196   1.00
C5       0.00747    0.29776    0.73022   1.00
C5       0.36691    0.53054    0.72787   1.00
H2       0.01016    0.30436    0.71347   1.00
H2       0.00428    0.34086    0.73729   1.00
H2       0.36887    0.48947    0.71906   1.00
H2       0.36847    0.51952    0.74434   1.00
H2       0.48659    0.64696    0.75037   1.00
H2       -0.11461   0.21324    0.70708   1.00
H2       -0.12566   0.26709    0.72534   1.00
C2       0.07044    0.20562    0.67005   1.00
C3       0.05836    0.26100    0.66937   1.00
O2       0.00589    0.25719    0.65775   1.00
C3       0.11456    0.20542    0.68522   1.00
H1       0.12625    0.16467    0.68583   1.00
C3a      0.08876    0.31339    0.68398   1.00
H1       0.07592    0.35341    0.68397   1.00
C3b      0.14296    0.25646    0.70012   1.00
C4       0.13007    0.31094    0.69961   1.00
O_3      0.06375    0.29367    0.73765   1.00
C5       0.03175    0.29423    0.63958   1.00
H2       0.06880    0.34909    0.64269   1.00
C5       -0.02912   0.28848    0.62778   1.00
H2       0.05767    0.27268    0.63031   1.00
H2       -0.04281   0.32541    0.63430   1.00
H2       -0.07332   0.23663    0.63065   1.00
C5       -0.01522   0.30084    0.60483   1.00
H2       0.03213    0.35046    0.60232   1.00
H2       -0.05829   0.30194    0.59704   1.00
H2       -0.00996   0.25907    0.59757   1.00
C5       -0.05668   0.23109    0.73549   1.00
H2       -0.06557   0.23020    0.75213   1.00
H2       -0.04716   0.18834    0.73214   1.00
C5       -0.11918   0.22179    0.72354   1.00
H2       -0.16609   0.17646    0.72927   1.00
C5       0.18304    0.57643    0.72067   1.00
H2       0.23869    0.59719    0.72260   1.00
H2       0.17259    0.56442    0.70427   1.00
C5       0.14344    0.51091    0.73354   1.00
H2       0.14019    0.46612    0.72552   1.00
H2       0.09093    0.50100    0.73664   1.00
O_3      0.06689    0.80801    0.71336   1.00
C4       0.20447    0.84171    0.71505   1.00
C3c      0.20449    0.78043    0.71181   1.00
H1       0.18763    0.75454    0.69740   1.00
C3d      0.22756    0.87514    0.73384   1.00
C3       0.22517    0.75113    0.72709   1.00
O2       0.23173    0.69575    0.72199   1.00
C3       0.24694    0.84544    0.74922   1.00
H1       0.26196    0.87170    0.76362   1.00
C2       0.24656    0.78311    0.74627   1.00
C5       0.05065    0.84325    0.72797   1.00
H2       0.02732    0.87165    0.72102   1.00
H2       0.09694    0.88033    0.73658   1.00
C5       -0.00044   0.79074    0.74262   1.00
H2       0.02213    0.76106    0.74914   1.00
H2       -0.04668   0.75438    0.73390   1.00
C5       -0.01912   0.82509    0.75950   1.00
H2       -0.04125   0.85521    0.75309   1.00
H2       0.02661    0.85962    0.76866   1.00
H2       -0.05763   0.78582    0.76980   1.00
C5       0.28367    0.99121    0.73168   1.00
C5       0.17053    0.63477    0.72643   1.00
H2       0.28969    0.99053    0.71496   1.00
H2       0.32997    0.99559    0.73912   1.00
H2       0.12769    0.63191    0.71730   1.00
H2       0.15588    0.63094    0.74279   1.00
H2       0.16991    0.51529    0.74825   1.00
H2       0.31926    1.11459    0.70949   1.00
H2       0.38292    1.12625    0.72830   1.00
C2       0.13497    0.92934    0.67004   1.00
C3       0.20339    0.94415    0.66994   1.00
O2       0.25206    0.99877    0.65898   1.00
C3       0.08996    0.88269    0.68462   1.00
H1       0.03687    0.86893    0.68477   1.00
C3a      0.22551    0.91385    0.68454   1.00
H1       0.27890    0.92870    0.68499   1.00
C3b      0.11262    0.85434    0.69953   1.00
C4       0.18088    0.86993    0.69960   1.00
O_3      0.22368    0.93280    0.73834   1.00
C5       0.26669    0.97593    0.64076   1.00
H2       0.28615    0.94016    0.64381   1.00
C5       0.32162    1.03905    0.62971   1.00
H2       0.22044    0.94952    0.63100   1.00
H2       0.37194    1.05393    0.63669   1.00
H2       0.31153    1.08160    0.63276   1.00
C5       0.32328    1.02784    0.60670   1.00
H2       0.32797    0.98194    0.60395   1.00
H2       0.36735    1.07267    0.59948   1.00
H2       0.27633    1.02143    0.59905   1.00
C5       0.27767    1.05322    0.73727   1.00
H2       0.28353    1.06048    0.75401   1.00
H2       0.22511    1.04200    0.73348   1.00
C5       0.33057    1.11787    0.72607   1.00
H2       0.32945    1.16316    0.73206   1.00
