data_IRMOF10_interpen_symm_ligand3lp_label_h_2.

_audit_creation_method             'generated by an auxiliary program of Tobunporous'

_symmetry_space_group_name_H-M     'P 1'
_symmetry_Int_Tables_number        1
_symmetry_cell_setting             triclinic

_cell_length_a                    22.6523
_cell_length_b                    22.6523
_cell_length_c                    65.9502
_cell_angle_alpha                 90.0000
_cell_angle_beta                  90.0000
_cell_angle_gamma                 120.0000

loop_
_atom_site_label
_atom_site_fract_x
_atom_site_fract_y
_atom_site_fract_z
_atom_site_occupancy
O1       0.00000    -0.00000   0.62500   1.00
Zn1      0.00000    -0.00000   0.59589   1.00
Zn1      0.94848    1.04288    0.63392   1.00
Zn1      0.09439    0.05152    0.63392   1.00
Zn1      -0.04288   0.90561    0.63392   1.00
O2       0.93860    0.02610    0.58587   1.00
O2       0.08750    0.06140    0.58587   1.00
O2       -0.02610   0.91250    0.58587   1.00
O2       0.91305    0.07161    0.61181   1.00
O2       0.00462    0.12022    0.65110   1.00
O2       0.87413    0.98074    0.65071   1.00
O2       0.15856    0.08695    0.61181   1.00
O2       0.10660    0.12587    0.65071   1.00
O2       0.11559    0.99538    0.65110   1.00
O2       -0.07161   0.84144    0.61181   1.00
O2       0.87978    0.88441    0.65110   1.00
O2       0.01926    0.89340    0.65071   1.00
C1       0.91390    0.06020    0.59358   1.00
C1       0.14630    0.08610    0.59358   1.00
C1       -0.06020   0.85370    0.59358   1.00
C1       0.06663    0.14397    0.65673   1.00
C1       0.85603    0.92267    0.65673   1.00
C1       0.07733    0.93337    0.65673   1.00
O1       -0.00000   0.00000    0.87500   1.00
Zn1      -0.00000   0.00000    0.90411   1.00
Zn1      1.04288    0.94848    0.86608   1.00
Zn1      0.05152    0.09439    0.86608   1.00
Zn1      0.90561    -0.04288   0.86608   1.00
O2       0.02610    0.93860    0.91413   1.00
O2       0.06140    0.08750    0.91413   1.00
O2       0.91250    -0.02610   0.91413   1.00
O2       0.07161    0.91305    0.88819   1.00
O2       0.12022    0.00462    0.84890   1.00
O2       0.98074    0.87413    0.84929   1.00
O2       0.08695    0.15856    0.88819   1.00
O2       0.12587    0.10660    0.84929   1.00
O2       0.99538    0.11559    0.84890   1.00
O2       0.84144    -0.07161   0.88819   1.00
O2       0.88441    0.87978    0.84890   1.00
O2       0.89340    0.01926    0.84929   1.00
C1       0.06020    0.91390    0.90642   1.00
C1       0.08610    0.14630    0.90642   1.00
C1       0.85370    -0.06020   0.90642   1.00
C1       0.14397    0.06663    0.84327   1.00
C1       0.92267    0.85603    0.84327   1.00
C1       0.93337    0.07733    0.84327   1.00
O1       0.00000    0.00000    0.37500   1.00
Zn1      0.00000    0.00000    0.40411   1.00
Zn1      0.05152    -0.04288   0.36608   1.00
Zn1      0.90561    0.94848    0.36608   1.00
Zn1      1.04288    0.09439    0.36608   1.00
O2       0.06140    -0.02610   0.41413   1.00
O2       0.91250    0.93860    0.41413   1.00
O2       0.02610    0.08750    0.41413   1.00
O2       0.08695    -0.07161   0.38819   1.00
O2       0.99538    0.87978    0.34890   1.00
O2       0.12587    0.01926    0.34929   1.00
O2       0.84144    0.91305    0.38819   1.00
O2       0.89340    0.87413    0.34929   1.00
O2       0.88441    0.00462    0.34890   1.00
O2       0.07161    0.15856    0.38819   1.00
O2       0.12022    0.11559    0.34890   1.00
O2       0.98074    0.10660    0.34929   1.00
C1       0.08610    -0.06020   0.40642   1.00
C1       0.85370    0.91390    0.40642   1.00
C1       0.06020    0.14630    0.40642   1.00
C1       0.93337    0.85603    0.34327   1.00
C1       0.14397    0.07733    0.34327   1.00
C1       0.92267    0.06663    0.34327   1.00
O1       0.00000    0.00000    0.12500   1.00
Zn1      0.00000    0.00000    0.09589   1.00
Zn1      -0.04288   0.05152    0.13392   1.00
Zn1      0.94848    0.90561    0.13392   1.00
Zn1      0.09439    1.04288    0.13392   1.00
O2       -0.02610   0.06140    0.08587   1.00
O2       0.93860    0.91250    0.08587   1.00
O2       0.08750    0.02610    0.08587   1.00
O2       -0.07161   0.08695    0.11181   1.00
O2       0.87978    0.99538    0.15110   1.00
O2       0.01926    0.12587    0.15071   1.00
O2       0.91305    0.84144    0.11181   1.00
O2       0.87413    0.89340    0.15071   1.00
O2       0.00462    0.88441    0.15110   1.00
O2       0.15856    0.07161    0.11181   1.00
O2       0.11559    0.12022    0.15110   1.00
O2       0.10660    0.98074    0.15071   1.00
C1       -0.06020   0.08610    0.09358   1.00
C1       0.91390    0.85370    0.09358   1.00
C1       0.14630    0.06020    0.09358   1.00
C1       0.85603    0.93337    0.15673   1.00
C1       0.07733    0.14397    0.15673   1.00
C1       0.06663    0.92267    0.15673   1.00
O1       0.66667    0.33333    0.95833   1.00
Zn1      0.66667    0.33333    0.92922   1.00
Zn1      0.61515    0.37621    0.96725   1.00
Zn1      0.76106    0.38485    0.96725   1.00
Zn1      -0.37621   0.23894    0.96725   1.00
O2       0.60527    0.35943    0.91920   1.00
O2       0.75417    0.39473    0.91920   1.00
O2       0.64057    0.24583    0.91920   1.00
O2       0.57972    0.40494    0.94514   1.00
O2       0.67129    0.45355    0.98443   1.00
O2       0.54080    0.31407    0.98404   1.00
O2       0.82523    0.42028    0.94514   1.00
O2       0.77327    0.45920    0.98404   1.00
O2       -0.21774   0.32871    0.98443   1.00
O2       0.59506    0.17477    0.94514   1.00
O2       0.54645    0.21774    0.98443   1.00
O2       -0.31407   0.22673    0.98404   1.00
C1       0.58057    0.39353    0.92691   1.00
C1       0.81297    0.41943    0.92691   1.00
C1       0.60647    0.18703    0.92691   1.00
C1       0.73330    0.47730    0.99006   1.00
C1       0.52270    0.25600    0.99006   1.00
C1       -0.25600   0.26670    0.99006   1.00
O1       0.66667    0.33333    0.20833   1.00
Zn1      0.66667    0.33333    0.23744   1.00
Zn1      0.70954    0.28182    0.19942   1.00
Zn1      0.71818    0.42773    0.19942   1.00
Zn1      0.57227    0.29046    0.19942   1.00
O2       0.69277    0.27193    0.24746   1.00
O2       0.72807    0.42083    0.24746   1.00
O2       0.57917    0.30723    0.24746   1.00
O2       0.73828    0.24638    0.22152   1.00
O2       0.78688    0.33796    0.18224   1.00
O2       0.64740    0.20747    0.18263   1.00
O2       0.75362    0.49189    0.22152   1.00
O2       0.79253    0.43994    0.18263   1.00
O2       0.66204    0.44893    0.18224   1.00
O2       0.50811    0.26172    0.22152   1.00
O2       0.55107    0.21312    0.18224   1.00
O2       0.56006    0.35260    0.18263   1.00
C1       0.72687    0.24723    0.23975   1.00
C1       0.75277    0.47963    0.23975   1.00
C1       0.52037    0.27313    0.23975   1.00
C1       0.81063    0.39997    0.17661   1.00
C1       0.58933    0.18937    0.17661   1.00
C1       0.60003    0.41067    0.17661   1.00
O1       0.66667    0.33333    0.70833   1.00
Zn1      0.66667    0.33333    0.73744   1.00
Zn1      0.71818    0.29046    0.69942   1.00
Zn1      0.57227    0.28182    0.69942   1.00
Zn1      0.70954    0.42773    0.69942   1.00
O2       0.72807    0.30723    0.74746   1.00
O2       0.57917    0.27193    0.74746   1.00
O2       0.69277    0.42083    0.74746   1.00
O2       0.75362    0.26172    0.72152   1.00
O2       0.66204    0.21312    0.68224   1.00
O2       0.79253    0.35260    0.68263   1.00
O2       0.50811    0.24638    0.72152   1.00
O2       0.56006    0.20747    0.68263   1.00
O2       0.55107    0.33796    0.68224   1.00
O2       0.73828    0.49189    0.72152   1.00
O2       0.78688    0.44893    0.68224   1.00
O2       0.64740    0.43994    0.68263   1.00
C1       0.75277    0.27313    0.73975   1.00
C1       0.52037    0.24723    0.73975   1.00
C1       0.72687    0.47963    0.73975   1.00
C1       0.60003    0.18937    0.67661   1.00
C1       0.81063    0.41067    0.67661   1.00
C1       0.58933    0.39997    0.67661   1.00
O1       0.66667    0.33333    0.45833   1.00
Zn1      0.66667    0.33333    0.42922   1.00
Zn1      -0.37621   0.38485    0.46725   1.00
Zn1      0.61515    0.23894    0.46725   1.00
Zn1      0.76106    0.37621    0.46725   1.00
O2       0.64057    0.39473    0.41920   1.00
O2       0.60527    0.24583    0.41920   1.00
O2       0.75417    0.35943    0.41920   1.00
O2       0.59506    0.42028    0.44514   1.00
O2       0.54645    0.32871    0.48443   1.00
O2       -0.31407   0.45920    0.48404   1.00
O2       0.57972    0.17477    0.44514   1.00
O2       0.54080    0.22673    0.48404   1.00
O2       0.67129    0.21774    0.48443   1.00
O2       0.82523    0.40494    0.44514   1.00
O2       -0.21774   0.45355    0.48443   1.00
O2       0.77327    0.31407    0.48404   1.00
C1       0.60647    0.41943    0.42691   1.00
C1       0.58057    0.18703    0.42691   1.00
C1       0.81297    0.39353    0.42691   1.00
C1       0.52270    0.26670    0.49006   1.00
C1       -0.25600   0.47730    0.49006   1.00
C1       0.73330    0.25600    0.49006   1.00
O1       0.33333    0.66667    0.29167   1.00
Zn1      0.33333    0.66667    0.26256   1.00
Zn1      0.28182    0.70954    0.30058   1.00
Zn1      0.42773    0.71818    0.30058   1.00
Zn1      0.29046    0.57227    0.30058   1.00
O2       0.27193    0.69277    0.25254   1.00
O2       0.42083    0.72807    0.25254   1.00
O2       0.30723    0.57917    0.25254   1.00
O2       0.24638    0.73828    0.27848   1.00
O2       0.33796    0.78688    0.31776   1.00
O2       0.20747    0.64740    0.31737   1.00
O2       0.49189    0.75362    0.27848   1.00
O2       0.43994    0.79253    0.31737   1.00
O2       0.44893    0.66204    0.31776   1.00
O2       0.26172    0.50811    0.27848   1.00
O2       0.21312    0.55107    0.31776   1.00
O2       0.35260    0.56006    0.31737   1.00
C1       0.24723    0.72687    0.26025   1.00
C1       0.47963    0.75277    0.26025   1.00
C1       0.27313    0.52037    0.26025   1.00
C1       0.39997    0.81063    0.32339   1.00
C1       0.18937    0.58933    0.32339   1.00
C1       0.41067    0.60003    0.32339   1.00
O1       0.33333    0.66667    0.54167   1.00
Zn1      0.33333    0.66667    0.57078   1.00
Zn1      0.37621    0.61515    0.53275   1.00
Zn1      0.38485    0.76106    0.53275   1.00
Zn1      0.23894    -0.37621   0.53275   1.00
O2       0.35943    0.60527    0.58080   1.00
O2       0.39473    0.75417    0.58080   1.00
O2       0.24583    0.64057    0.58080   1.00
O2       0.40494    0.57972    0.55486   1.00
O2       0.45355    0.67129    0.51557   1.00
O2       0.31407    0.54080    0.51596   1.00
O2       0.42028    0.82523    0.55486   1.00
O2       0.45920    0.77327    0.51596   1.00
O2       0.32871    -0.21774   0.51557   1.00
O2       0.17477    0.59506    0.55486   1.00
O2       0.21774    0.54645    0.51557   1.00
O2       0.22673    -0.31407   0.51596   1.00
C1       0.39353    0.58057    0.57309   1.00
C1       0.41943    0.81297    0.57309   1.00
C1       0.18703    0.60647    0.57309   1.00
C1       0.47730    0.73330    0.50994   1.00
C1       0.25600    0.52270    0.50994   1.00
C1       0.26670    -0.25600   0.50994   1.00
O1       0.33333    0.66667    0.04167   1.00
Zn1      0.33333    0.66667    0.07078   1.00
Zn1      0.38485    -0.37621   0.03275   1.00
Zn1      0.23894    0.61515    0.03275   1.00
Zn1      0.37621    0.76106    0.03275   1.00
O2       0.39473    0.64057    0.08080   1.00
O2       0.24583    0.60527    0.08080   1.00
O2       0.35943    0.75417    0.08080   1.00
O2       0.42028    0.59506    0.05486   1.00
O2       0.32871    0.54645    0.01557   1.00
O2       0.45920    -0.31407   0.01596   1.00
O2       0.17477    0.57972    0.05486   1.00
O2       0.22673    0.54080    0.01596   1.00
O2       0.21774    0.67129    0.01557   1.00
O2       0.40494    0.82523    0.05486   1.00
O2       0.45355    -0.21774   0.01557   1.00
O2       0.31407    0.77327    0.01596   1.00
C1       0.41943    0.60647    0.07309   1.00
C1       0.18703    0.58057    0.07309   1.00
C1       0.39353    0.81297    0.07309   1.00
C1       0.26670    0.52270    0.00994   1.00
C1       0.47730    -0.25600   0.00994   1.00
C1       0.25600    0.73330    0.00994   1.00
O1       0.33333    0.66667    0.79167   1.00
Zn1      0.33333    0.66667    0.76256   1.00
Zn1      0.29046    0.71818    0.80058   1.00
Zn1      0.28182    0.57227    0.80058   1.00
Zn1      0.42773    0.70954    0.80058   1.00
O2       0.30723    0.72807    0.75254   1.00
O2       0.27193    0.57917    0.75254   1.00
O2       0.42083    0.69277    0.75254   1.00
O2       0.26172    0.75362    0.77848   1.00
O2       0.21312    0.66204    0.81776   1.00
O2       0.35260    0.79253    0.81737   1.00
O2       0.24638    0.50811    0.77848   1.00
O2       0.20747    0.56006    0.81737   1.00
O2       0.33796    0.55107    0.81776   1.00
O2       0.49189    0.73828    0.77848   1.00
O2       0.44893    0.78688    0.81776   1.00
O2       0.43994    0.64740    0.81737   1.00
C1       0.27313    0.75277    0.76025   1.00
C1       0.24723    0.52037    0.76025   1.00
C1       0.47963    0.72687    0.76025   1.00
C1       0.18937    0.60003    0.82339   1.00
C1       0.41067    0.81063    0.82339   1.00
C1       0.39997    0.58933    0.82339   1.00
C4       -0.13550   0.69287    0.54911   1.00
C4       -0.16403   0.63934    0.53439   1.00
C3       -0.08527   0.70082    0.56345   1.00
C3       -0.14981   0.58498    0.53375   1.00
C3       -0.15889   0.74084    0.54986   1.00
C3       -0.20923   0.63967    0.51936   1.00
C2       -0.08284   0.80049    0.57903   1.00
C2       -0.22496   0.53214    0.50443   1.00
C3       -0.05992   0.75289    0.57808   1.00
C3       -0.17891   0.53319    0.51907   1.00
C3       -0.13174   0.79377    0.56449   1.00
C3       -0.24028   0.58544    0.50525   1.00
H1       -0.06546   0.66916    0.56365   1.00
H1       -0.11823   0.58118    0.54400   1.00
C5       -0.20902   0.73579    0.53594   1.00
C5       -0.22375   0.69368    0.51859   1.00
H1       -0.02400   0.75582    0.58816   1.00
H1       -0.16631   0.49549    0.51923   1.00
H1       -0.14762   0.82892    0.56449   1.00
H1       -0.27585   0.58411    0.49542   1.00
O3       -0.23957   0.77467    0.53883   1.00
O3       -0.25601   0.70227    0.50199   1.00
Si1      -0.31128   0.74313    0.55133   1.00
Si1      -0.21025   0.74436    0.48240   1.00
C6       -0.31516   0.81897    0.55276   1.00
C6       -0.37597   0.68252    0.53551   1.00
C6       -0.30713   0.71318    0.57572   1.00
C6       -0.12162   0.77449    0.48303   1.00
C6       -0.24749   0.68580    0.46244   1.00
C6       -0.22530   0.81247    0.47805   1.00
C6       -0.24793   0.88433    0.55960   1.00
H2       -0.32223   0.82782    0.53689   1.00
C6       -0.37400   0.82132    0.56467   1.00
H2       -0.35441   0.70037    0.52044   1.00
C6       -0.39277   0.60667    0.53672   1.00
C6       -0.44690   0.67875    0.53528   1.00
H2       -0.25984   0.75544    0.58172   1.00
C6       -0.36442   0.70172    0.59120   1.00
C6       -0.30086   0.64739    0.57786   1.00
C6       -0.07915   0.82262    0.50085   1.00
C6       -0.09511   0.72304    0.48008   1.00
H2       -0.10371   0.80619    0.46944   1.00
H2       -0.23342   0.64716    0.46562   1.00
C6       -0.32730   0.64631    0.46157   1.00
C6       -0.22192   0.71212    0.44046   1.00
H2       -0.27353   0.78916    0.46979   1.00
C6       -0.23782   0.84508    0.49721   1.00
C6       -0.17309   0.87331    0.46460   1.00
H2       -0.20488   0.89366    0.54996   1.00
H2       -0.23485   0.87968    0.57525   1.00
H2       -0.25300   0.92979    0.55859   1.00
H2       -0.38673   0.85677    0.55729   1.00
H2       -0.42044   0.77201    0.56543   1.00
H2       -0.35938   0.83944    0.58022   1.00
H2       -0.42233   0.57789    0.52350   1.00
H2       -0.34693   0.60254    0.53686   1.00
H2       -0.42287   0.58142    0.55020   1.00
H2       -0.44181   0.72801    0.53152   1.00
H2       -0.48058   0.64296    0.52375   1.00
H2       -0.47254   0.66175    0.54991   1.00
H2       -0.41503   0.66847    0.58485   1.00
H2       -0.36045   0.67870    0.60536   1.00
H2       -0.36053   0.74973    0.59565   1.00
H2       -0.35060   0.60088    0.57795   1.00
H2       -0.27124   0.64181    0.56589   1.00
H2       -0.27575   0.64877    0.59217   1.00
H2       -0.08162   0.79395    0.51440   1.00
H2       -0.02537   0.85288    0.49663   1.00
H2       -0.09609   0.85841    0.50485   1.00
H2       -0.03978   0.75035    0.47798   1.00
H2       -0.10600   0.68972    0.49312   1.00
H2       -0.11675   0.69132    0.46664   1.00
H2       -0.34570   0.60348    0.45099   1.00
H2       -0.34955   0.62492    0.47635   1.00
H2       -0.34726   0.67893    0.45661   1.00
H2       -0.16639   0.73878    0.43948   1.00
H2       -0.24118   0.66934    0.42983   1.00
H2       -0.23963   0.74638    0.43524   1.00
H2       -0.19363   0.86814    0.50723   1.00
H2       -0.25068   0.88408    0.49314   1.00
H2       -0.28059   0.80628    0.50577   1.00
H2       -0.19326   0.90664    0.46049   1.00
H2       -0.12488   0.90434    0.47256   1.00
H2       -0.16237   0.85564    0.45044   1.00
C4       0.30921    0.17201    0.54976   1.00
C4       0.36230    0.19646    0.53491   1.00
C3       0.31788    0.20028    0.56950   1.00
C3       0.43082    0.24734    0.53892   1.00
C3       0.24387    0.11548    0.54488   1.00
C3       0.34665    0.16903    0.51487   1.00
C2       0.20029    0.11750    0.57927   1.00
C2       0.46708    0.24207    0.50419   1.00
C3       0.26507    0.17357    0.58390   1.00
C3       0.48166    0.27001    0.52393   1.00
C3       0.19088    0.09010    0.55948   1.00
C3       0.39922    0.19047    0.50024   1.00
H1       0.36274    0.24125    0.57398   1.00
H1       0.44591    0.26914    0.55286   1.00
C5       0.23179    0.08487    0.52541   1.00
C5       0.27885    0.11996    0.50956   1.00
H1       0.27447    0.19581    0.59798   1.00
H1       0.53020    0.30735    0.52765   1.00
H1       0.14373    0.05075    0.55558   1.00
H1       0.38807    0.16722    0.48636   1.00
O3       0.17293    0.02383    0.52188   1.00
O3       0.26005    0.10289    0.48952   1.00
Si1      0.17294    -0.04783   0.52463   1.00
Si1      0.23875    0.15005    0.47617   1.00
C6       0.08428    -0.10280   0.52178   1.00
C6       0.21836    -0.05527   0.50400   1.00
C6       0.20108    -0.05693   0.54879   1.00
C6       0.24364    0.22271    0.48781   1.00
C6       0.29538    0.17563    0.45557   1.00
C6       0.15578    0.09611    0.46687   1.00
C6       0.03747    -0.08369   0.53437   1.00
H2       0.07616    -0.09460   0.50594   1.00
C6       0.05157    -0.18205   0.52419   1.00
H2       0.21247    -0.02392   0.49251   1.00
C6       0.29697    -0.02554   0.50634   1.00
C6       0.19116    -0.12692   0.49398   1.00
H2       0.17200    -0.04268   0.55891   1.00
C6       0.18364    -0.13044   0.55533   1.00
C6       0.27819    -0.01074   0.55474   1.00
C6       0.20192    0.21221    0.50771   1.00
C6       0.31506    0.28770    0.49131   1.00
H2       0.21984    0.23929    0.47648   1.00
H2       0.34468    0.21108    0.46228   1.00
C6       0.30516    0.11860    0.44540   1.00
C6       0.28384    0.21502    0.43796   1.00
H2       0.16356    0.07168    0.45367   1.00
C6       0.10684    0.03615    0.48096   1.00
C6       0.11399    0.12967    0.45912   1.00
H2       0.04910    -0.03160   0.53123   1.00
H2       0.04354    -0.08802   0.55065   1.00
H2       -0.01629   -0.11701   0.53058   1.00
H2       0.00785    -0.20839   0.51401   1.00
H2       0.08687    -0.19996   0.52068   1.00
H2       0.03240    -0.19933   0.53952   1.00
H2       0.32091    -0.02017   0.49153   1.00
H2       0.32205    0.02505    0.51312   1.00
H2       0.30802    -0.05893   0.51554   1.00
H2       0.13847    -0.14835   0.48894   1.00
H2       0.22070    -0.12364   0.48046   1.00
H2       0.19441    -0.16252   0.50447   1.00
H2       0.20108    -0.15351   0.54400   1.00
H2       0.20709    -0.13045   0.56984   1.00
H2       0.12920    -0.16335   0.55764   1.00
H2       0.30905    -0.03299   0.55002   1.00
H2       0.30160    0.04003    0.54831   1.00
H2       0.28318    -0.00453   0.57122   1.00
H2       0.22914    0.20991    0.52103   1.00
H2       0.19271    0.25476    0.51001   1.00
H2       0.15227    0.16594    0.50726   1.00
H2       0.30923    0.33094    0.49591   1.00
H2       0.34400    0.28027    0.50321   1.00
H2       0.34593    0.30357    0.47756   1.00
H2       0.34922    0.14119    0.43522   1.00
H2       0.31488    0.08919    0.45671   1.00
H2       0.26069    0.08326    0.43654   1.00
H2       0.27847    0.25736    0.44362   1.00
H2       0.32748    0.23674    0.42761   1.00
H2       0.23857    0.18133    0.42908   1.00
H2       0.09699    0.05413    0.49521   1.00
H2       0.05797    0.00294    0.47360   1.00
H2       0.12929    0.00483    0.48456   1.00
H2       0.06833    0.09250    0.45096   1.00
H2       0.09750    0.14949    0.47168   1.00
H2       0.14349    0.17138    0.44860   1.00
C4       0.83257    0.14331    0.55029   1.00
C4       0.80809    0.17092    0.53512   1.00
C3       0.87355    0.18152    0.56696   1.00
C3       0.82720    0.24090    0.53409   1.00
C3       0.81635    0.07392    0.54867   1.00
C3       0.76174    0.12661    0.52009   1.00
C2       0.88288    0.08469    0.57976   1.00
C2       0.75755    0.22311    0.50370   1.00
C3       0.89836    0.15319    0.58123   1.00
C3       0.80215    0.26620    0.51893   1.00
C3       0.84081    0.04592    0.56344   1.00
C3       0.73939    0.15365    0.50444   1.00
H1       0.88639    0.23100    0.56927   1.00
H1       0.86021    0.27563    0.54424   1.00
C5       0.77556    0.03288    0.53237   1.00
C5       0.73838    0.05573    0.52062   1.00
H1       0.92819    0.18344    0.59289   1.00
H1       0.81727    0.31716    0.51904   1.00
H1       0.82719    -0.00445   0.56239   1.00
H1       0.70972    0.12206    0.49306   1.00
O3       0.76950    -0.02995   0.52895   1.00
O3       0.68389    0.01036    0.50886   1.00
Si1      0.82086    -0.03694   0.51300   1.00
Si1      0.60666    -0.01839   0.51743   1.00
C6       0.79575    -0.12270   0.51839   1.00
C6       0.79590    -0.02831   0.48836   1.00
C6       0.90791    0.01786    0.51863   1.00
C6       0.59637    0.01234    0.54105   1.00
C6       0.56797    0.00453    0.49830   1.00
C6       0.56675    -0.10802   0.51790   1.00
C6       0.79105    -0.14164   0.54144   1.00
H2       0.74326    -0.14971   0.51286   1.00
C6       0.83198    -0.15847   0.50797   1.00
H2       0.74224    -0.04411   0.49057   1.00
C6       0.82930    0.04463    0.47880   1.00
C6       0.79705    -0.07524   0.47112   1.00
H2       0.90974    0.00957    0.53489   1.00
C6       0.96057    0.00124    0.50853   1.00
C6       0.94013    0.09693    0.51561   1.00
C6       0.63249    0.00311    0.56000   1.00
C6       0.60717    0.08616    0.54251   1.00
H2       0.54190    -0.02032   0.54389   1.00
H2       0.59279    0.05990    0.49955   1.00
C6       0.58111    -0.00968   0.47598   1.00
C6       0.48961    -0.02306   0.50015   1.00
H2       0.55056    -0.12313   0.50225   1.00
C6       0.61336    -0.13853   0.52294   1.00
C6       0.50117    -0.14824   0.53122   1.00
H2       0.75736    -0.12843   0.54965   1.00
H2       0.84119    -0.11514   0.54866   1.00
H2       0.77025    -0.19644   0.54348   1.00
H2       0.79542    -0.21254   0.50559   1.00
H2       0.85382    -0.13658   0.49330   1.00
H2       0.87291    -0.15618   0.51731   1.00
H2       0.79980    0.04521    0.46574   1.00
H2       0.83106    0.08224    0.48943   1.00
H2       0.88098    0.06130    0.47353   1.00
H2       0.76620    -0.12906   0.47509   1.00
H2       0.77555    -0.06856   0.45702   1.00
H2       0.84907    -0.06363   0.46788   1.00
H2       0.95417    -0.00309   0.49208   1.00
H2       1.01329    0.04042    0.51173   1.00
H2       0.95560    -0.04578   0.51447   1.00
H2       0.95881    0.11283    0.50018   1.00
H2       0.90513    0.11524    0.51880   1.00
H2       0.98371    0.12437    0.52579   1.00
H2       0.68558    0.04346    0.56105   1.00
H2       0.60734    0.00496    0.57395   1.00
H2       0.63102    -0.04567   0.55990   1.00
H2       0.58972    0.09403    0.55720   1.00
H2       0.66053    0.12524    0.54105   1.00
H2       0.57809    0.09552    0.53105   1.00
H2       0.56517    0.01649    0.46524   1.00
H2       0.63528    0.00934    0.47324   1.00
H2       0.55318    -0.06395   0.47235   1.00
H2       0.47588    -0.01349   0.51516   1.00
H2       0.47351    0.00240    0.48919   1.00
H2       0.46020    -0.07776   0.49710   1.00
H2       0.63514    -0.12470   0.53812   1.00
H2       0.58567    -0.19410   0.52176   1.00
H2       0.65521    -0.11969   0.51219   1.00
H2       0.47560    -0.20281   0.52784   1.00
H2       0.51344    -0.14193   0.54739   1.00
H2       0.46420    -0.13176   0.52835   1.00
C4       0.68983    -0.14436   0.94988   1.00
C4       0.63782    -0.17160   0.96508   1.00
C3       0.70443    -0.18534   0.93684   1.00
C3       0.59951    -0.24202   0.96999   1.00
C3       0.73054    -0.07215   0.94767   1.00
C3       0.62264    -0.12646   0.97605   1.00
C2       0.79811    -0.08531   0.92021   1.00
C2       0.53452    -0.22249   0.99633   1.00
C3       0.75731    -0.15668   0.92249   1.00
C3       0.54884    -0.26688   0.98505   1.00
C3       0.78281    -0.04425   0.93284   1.00
C3       0.57343    -0.15218   0.99176   1.00
H1       0.67692    -0.23722   0.93734   1.00
H1       0.60757    -0.27727   0.96286   1.00
C5       0.71858    -0.02828   0.96022   1.00
C5       0.65698    -0.05588   0.97144   1.00
H1       0.76582    -0.18885   0.91358   1.00
H1       0.52236    -0.31838   0.98783   1.00
H1       0.81034    0.00759    0.93104   1.00
H1       0.56624    -0.11868   1.00034   1.00
O3       0.76476    0.04067    0.96041   1.00
O3       0.63407    -0.01385   0.97891   1.00
Si1      0.82558    0.07216    0.97732   1.00
Si1      0.57421    -0.00878   0.96662   1.00
C6       0.87111    0.15542    0.96724   1.00
C6       0.78810    0.07140    1.00083   1.00
C6       0.87573    0.03248    0.97736   1.00
C6       0.53938    -0.05981   0.94475   1.00
C6       0.51009    -0.03225   0.98497   1.00
C6       0.60618    0.07778    0.96063   1.00
C6       0.88446    0.16038    0.94379   1.00
H2       0.83554    0.17411    0.96958   1.00
C6       0.94023    0.21070    0.97692   1.00
H2       0.74257    0.07271    0.99612   1.00
C6       0.76212    0.00695    1.01465   1.00
C6       0.82727    0.13362    1.01544   1.00
H2       0.88653    0.03184    0.96122   1.00
C6       0.94677    0.07115    0.98818   1.00
C6       0.84397    -0.04306   0.98507   1.00
C6       0.58905    -0.05183   0.92712   1.00
C6       0.48891    -0.13823   0.94713   1.00
H2       0.50729    -0.04074   0.93861   1.00
H2       0.49068    -0.08665   0.98718   1.00
C6       0.53421    0.00073    1.00645   1.00
C6       0.44728    -0.02455   0.97923   1.00
H2       0.59945    0.09965    0.97459   1.00
C6       0.68394    0.12048    0.95589   1.00
C6       0.56937    0.09552    0.94359   1.00
H2       0.83701    0.13174    0.93528   1.00
H2       0.91806    0.14056    0.93970   1.00
H2       0.90815    0.21318    0.93855   1.00
H2       0.94547    0.26122    0.97548   1.00
H2       0.94420    0.20195    0.99294   1.00
H2       0.98442    0.21345    0.96934   1.00
H2       0.72771    0.00649    1.02637   1.00
H2       0.73335    -0.04020   1.00613   1.00
H2       0.80442    0.00607    1.02230   1.00
H2       0.83928    0.18143    1.00802   1.00
H2       0.79640    0.12934    1.02872   1.00
H2       0.87445    0.13708    1.02089   1.00
H2       0.94163    0.08442    1.00375   1.00
H2       0.97206    0.04073    0.98868   1.00
H2       0.98176    0.11732    0.98005   1.00
H2       0.84943    -0.04568   1.00144   1.00
H2       0.79021    -0.07447   0.98163   1.00
H2       0.86986    -0.06752   0.97793   1.00
H2       0.61351    -0.08208   0.92978   1.00
H2       0.56125    -0.06937   0.91280   1.00
H2       0.62873    0.00099    0.92490   1.00
H2       0.46459    -0.16071   0.93263   1.00
H2       0.51448    -0.16545   0.95218   1.00
H2       0.44769    -0.14912   0.95772   1.00
H2       0.49332    -0.02538   1.01757   1.00
H2       0.57753    -0.00362   1.01183   1.00
H2       0.54900    0.05457    1.00650   1.00
H2       0.42563    -0.04808   0.96462   1.00
H2       0.40678    -0.04980   0.99052   1.00
H2       0.46085    0.02898    0.97864   1.00
H2       0.69786    0.10181    0.94252   1.00
H2       0.70035    0.17427    0.95352   1.00
H2       0.71296    0.11800    0.96864   1.00
H2       0.58704    0.15017    0.94346   1.00
H2       0.57929    0.08186    0.92858   1.00
H2       0.51436    0.06937    0.94590   1.00
C4       0.17201    0.30921    0.95024   1.00
C4       0.19646    0.36230    0.96509   1.00
C3       0.20032    0.31785    0.93051   1.00
C3       0.24739    0.43081    0.96109   1.00
C3       0.11544    0.24388    0.95512   1.00
C3       0.16898    0.34667    0.98512   1.00
C2       0.11750    0.20028    0.92073   1.00
C2       0.24207    0.46709    0.99581   1.00
C3       0.17362    0.26505    0.91611   1.00
C3       0.27005    0.48165    0.97607   1.00
C3       0.09006    0.19090    0.94051   1.00
C3       0.19042    0.39924    0.99975   1.00
H1       0.24133    0.36270    0.92604   1.00
H1       0.26923    0.44588    0.94715   1.00
C5       0.08478    0.23183    0.97458   1.00
C5       0.11986    0.27888    0.99043   1.00
H1       0.19588    0.27443    0.90203   1.00
H1       0.30744    0.53018    0.97236   1.00
H1       0.05067    0.14376    0.94441   1.00
H1       0.16714    0.38810    1.01363   1.00
O3       0.02371    0.17300    0.97810   1.00
O3       0.10273    0.26009    1.01047   1.00
Si1      -0.04792   0.17307    0.97533   1.00
Si1      0.14982    0.23873    1.02383   1.00
C6       -0.10295   0.08442    0.97818   1.00
C6       -0.05536   0.21851    0.99595   1.00
C6       -0.05692   0.20123    0.95116   1.00
C6       0.22248    0.24355    1.01221   1.00
C6       0.17539    0.29536    1.04443   1.00
C6       0.09581    0.15577    1.03313   1.00
C6       -0.08386   0.03757    0.96560   1.00
H2       -0.09480   0.07629    0.99402   1.00
C6       -0.18219   0.05177    0.97574   1.00
H2       -0.02405   0.21259    1.00745   1.00
C6       -0.02556   0.29714    0.99361   1.00
C6       -0.12703   0.19137    1.00596   1.00
H2       -0.04269   0.17213    0.94105   1.00
C6       -0.13040   0.18385    0.94461   1.00
C6       -0.01067   0.27834    0.94521   1.00
C6       0.21200    0.20183    0.99232   1.00
C6       0.28752    0.31495    1.00872   1.00
H2       0.23900    0.21973    1.02355   1.00
H2       0.21088    0.34465    1.03773   1.00
C6       0.11837    0.30520    1.05458   1.00
C6       0.21470    0.28378    1.06206   1.00
H2       0.07136    0.16357    1.04632   1.00
C6       0.03586    0.10687    1.01903   1.00
C6       0.12929    0.11393    1.04090   1.00
H2       -0.03178   0.04916    0.96875   1.00
H2       -0.08813   0.04365    0.94931   1.00
H2       -0.11722   -0.01618   0.96939   1.00
H2       -0.20857   0.00805    0.98592   1.00
H2       -0.20006   0.08710    0.97924   1.00
H2       -0.19944   0.03260    0.96041   1.00
H2       -0.02022   0.32108    1.00842   1.00
H2       0.02504    0.32219    0.98684   1.00
H2       -0.05890   0.30822    0.98439   1.00
H2       -0.14850   0.13867    1.01099   1.00
H2       -0.12375   0.22092    1.01947   1.00
H2       -0.16259   0.19465    0.99545   1.00
H2       -0.15347   0.20132    0.95592   1.00
H2       -0.13035   0.20731    0.93009   1.00
H2       -0.16334   0.12941    0.94229   1.00
H2       -0.03290   0.30923    0.94992   1.00
H2       0.04008    0.30171    0.95166   1.00
H2       -0.00442   0.28333    0.92873   1.00
H2       0.20975    0.22906    0.97899   1.00
H2       0.25452    0.19258    0.99003   1.00
H2       0.16570    0.15220    0.99277   1.00
H2       0.33074    0.30908    1.00414   1.00
H2       0.28014    0.34391    0.99682   1.00
H2       0.30337    0.34582    1.02248   1.00
H2       0.14096    0.34926    1.06476   1.00
H2       0.08901    0.31494    1.04326   1.00
H2       0.08298    0.26074    1.06345   1.00
H2       0.25704    0.27837    1.05641   1.00
H2       0.23643    0.32742    1.07241   1.00
H2       0.18097    0.23852    1.07093   1.00
H2       0.05386    0.09699    1.00479   1.00
H2       0.00261    0.05800    1.02638   1.00
H2       0.00459    0.12936    1.01542   1.00
H2       0.09208    0.06828    1.04905   1.00
H2       0.14912    0.09742    1.02835   1.00
H2       0.17098    0.14340    1.05142   1.00
C4       0.14331    0.83257    0.94971   1.00
C4       0.17092    0.80809    0.96488   1.00
C3       0.18152    0.87355    0.93304   1.00
C3       0.24090    0.82720    0.96591   1.00
C3       0.07392    0.81635    0.95133   1.00
C3       0.12661    0.76174    0.97991   1.00
C2       0.08469    0.88288    0.92024   1.00
C2       0.22311    0.75755    0.99630   1.00
C3       0.15319    0.89835    0.91876   1.00
C3       0.26620    0.80215    0.98107   1.00
C3       0.04592    0.84081    0.93657   1.00
C3       0.15365    0.73940    0.99556   1.00
H1       0.23100    0.88638    0.93073   1.00
H1       0.27562    0.86020    0.95576   1.00
C5       0.03288    0.77557    0.96764   1.00
C5       0.05573    0.73839    0.97939   1.00
H1       0.18343    0.92818    0.90710   1.00
H1       0.31716    0.81726    0.98096   1.00
H1       -0.00444   0.82720    0.93761   1.00
H1       0.12206    0.70973    1.00694   1.00
O3       -0.02994   0.76952    0.97105   1.00
O3       0.01036    0.68390    0.99114   1.00
Si1      -0.03693   0.82088    0.98700   1.00
Si1      -0.01840   0.60667    0.98258   1.00
C6       -0.12268   0.79578    0.98161   1.00
C6       -0.02829   0.79592    1.01165   1.00
C6       0.01788    0.90793    0.98137   1.00
C6       0.01233    0.59638    0.95896   1.00
C6       0.00452    0.56799    1.00171   1.00
C6       -0.10803   0.56677    0.98210   1.00
C6       -0.14163   0.79108    0.95857   1.00
H2       -0.14970   0.74330    0.98715   1.00
C6       -0.15844   0.83201    0.99203   1.00
H2       -0.04409   0.74227    1.00943   1.00
C6       0.04465    0.82933    1.02120   1.00
C6       -0.07522   0.79708    1.02889   1.00
H2       0.00958    0.90976    0.96511   1.00
C6       0.00127    0.96059    0.99147   1.00
C6       0.09695    0.94015    0.98439   1.00
C6       0.00310    0.63250    0.94000   1.00
C6       0.08615    0.60716    0.95750   1.00
H2       -0.02034   0.54190    0.95611   1.00
H2       0.05990    0.59280    1.00046   1.00
C6       -0.00968   0.58112    1.02403   1.00
C6       -0.02308   0.48962    0.99986   1.00
H2       -0.12314   0.55058    0.99776   1.00
C6       -0.13854   0.61338    0.97707   1.00
C6       -0.14825   0.50118    0.96879   1.00
H2       -0.12843   0.75738    0.95035   1.00
H2       -0.11513   0.84121    0.95134   1.00
H2       -0.19643   0.77028    0.95652   1.00
H2       -0.21252   0.79546    0.99441   1.00
H2       -0.13656   0.85386    1.00670   1.00
H2       -0.15615   0.87295    0.98269   1.00
H2       0.04523    0.79983    1.03426   1.00
H2       0.08226    0.83108    1.01057   1.00
H2       0.06132    0.88101    1.02647   1.00
H2       -0.12904   0.76624    1.02492   1.00
H2       -0.06853   0.77559    1.04299   1.00
H2       -0.06361   0.84911    1.03213   1.00
H2       -0.00306   0.95420    1.00792   1.00
H2       0.04045    1.01332    0.98827   1.00
H2       -0.04576   0.95563    0.98553   1.00
H2       0.11285    0.95883    0.99982   1.00
H2       0.11525    0.90515    0.98120   1.00
H2       0.12439    0.98373    0.97421   1.00
H2       0.04345    0.68558    0.93895   1.00
H2       0.00494    0.60734    0.92606   1.00
H2       -0.04569   0.63102    0.94010   1.00
H2       0.09401    0.58972    0.94280   1.00
H2       0.12523    0.66052    0.95895   1.00
H2       0.09550    0.57808    0.96896   1.00
H2       0.01649    0.56519    1.03477   1.00
H2       0.00934    0.63530    1.02676   1.00
H2       -0.06395   0.55320    1.02766   1.00
H2       -0.01350   0.47588    0.98485   1.00
H2       0.00239    0.47352    1.01082   1.00
H2       -0.07777   0.46022    1.00291   1.00
H2       -0.12470   0.63515    0.96188   1.00
H2       -0.19410   0.58569    0.97825   1.00
H2       -0.11969   0.65523    0.98781   1.00
H2       -0.20282   0.47562    0.97217   1.00
H2       -0.14194   0.51345    0.95262   1.00
H2       -0.13177   0.46422    0.97166   1.00
C4       0.14122    0.30420    0.45175   1.00
C4       0.16936    0.35793    0.46641   1.00
C3       0.16559    0.25805    0.44861   1.00
C3       0.22847    0.37475    0.47806   1.00
C3       0.08629    0.29633    0.43924   1.00
C3       0.13697    0.39733    0.46979   1.00
C2       0.08380    0.19902    0.42111   1.00
C2       0.22400    0.46835    0.49543   1.00
C3       0.13797    0.20715    0.43364   1.00
C3       0.25469    0.42801    0.49231   1.00
C3       0.05829    0.24384    0.42448   1.00
C3       0.16590    0.45264    0.48358   1.00
H1       0.20397    0.25993    0.45715   1.00
H1       0.25445    0.34908    0.47645   1.00
C5       0.05952    0.34075    0.44161   1.00
C5       0.07630    0.38181    0.45927   1.00
H1       0.15800    0.17557    0.43196   1.00
H1       0.29724    0.43748    0.50043   1.00
H1       0.01766    0.23762    0.41600   1.00
H1       0.14464    0.48306    0.48488   1.00
O3       0.01471    0.34045    0.42741   1.00
O3       0.03698    0.40987    0.46512   1.00
Si1      0.04344    0.39399    0.40845   1.00
Si1      -0.01901   0.37301    0.48318   1.00
C6       -0.03389   0.35974    0.39483   1.00
C6       0.06736    0.47548    0.41815   1.00
C6       0.10703    0.38927    0.39423   1.00
C6       -0.02457   0.30035    0.49502   1.00
C6       0.00509    0.43830    0.50116   1.00
C6       -0.09898   0.35355    0.47326   1.00
C6       -0.07364   0.28030    0.39211   1.00
H2       -0.06553   0.37071    0.40488   1.00
C6       -0.03726   0.38923    0.37358   1.00
H2       0.03547    0.46292    0.43167   1.00
C6       0.14238    0.52152    0.42568   1.00
C6       0.05121    0.52383    0.40531   1.00
H2       0.08444    0.33436    0.39194   1.00
C6       0.12294    0.42191    0.37254   1.00
C6       0.17931    0.41484    0.40389   1.00
C6       -0.03923   0.23799    0.48137   1.00
C6       0.03198    0.30928    0.51044   1.00
H2       -0.06984   0.28266    0.50450   1.00
H2       0.05292    0.44525    0.50727   1.00
C6       0.02242    0.50977    0.49265   1.00
C6       -0.04337   0.42370    0.51970   1.00
H2       -0.09909   0.40161    0.47426   1.00
C6       -0.11123   0.33362    0.45038   1.00
C6       -0.16453   0.29955    0.48471   1.00
H2       -0.08377   0.25411    0.40670   1.00
H2       -0.04495   0.26356    0.38274   1.00
H2       -0.12318   0.26280    0.38493   1.00
H2       -0.08687   0.38570    0.37160   1.00
H2       0.00159    0.44243    0.37167   1.00
H2       -0.03171   0.36079    0.36106   1.00
H2       0.14667    0.56324    0.43511   1.00
H2       0.15956    0.49338    0.43501   1.00
H2       0.17747    0.54422    0.41295   1.00
H2       -0.00297   0.49970    0.40170   1.00
H2       0.06378    0.57043    0.41366   1.00
H2       0.08055    0.53894    0.39123   1.00
H2       0.13489    0.47496    0.37308   1.00
H2       0.16610    0.42080    0.36546   1.00
H2       0.08035    0.39371    0.36228   1.00
H2       0.21348    0.46931    0.40146   1.00
H2       0.17779    0.40603    0.42007   1.00
H2       0.20341    0.38827    0.39696   1.00
H2       0.00716    0.24417    0.47442   1.00
H2       -0.06091   0.19129    0.49042   1.00
H2       -0.07562   0.22950    0.46936   1.00
H2       0.01654    0.26155    0.51853   1.00
H2       0.08016    0.32351    0.50300   1.00
H2       0.04122    0.34734    0.52201   1.00
H2       0.04770    0.54908    0.50427   1.00
H2       0.05741    0.52464    0.47978   1.00
H2       -0.02314   0.51071    0.48777   1.00
H2       -0.05666   0.37541    0.52703   1.00
H2       -0.01845   0.46358    0.53118   1.00
H2       -0.09036   0.42256    0.51521   1.00
H2       -0.10970   0.28715    0.44722   1.00
H2       -0.16024   0.32630    0.44516   1.00
H2       -0.07207   0.37427    0.44127   1.00
H2       -0.20979   0.29971    0.47899   1.00
H2       -0.17276   0.24805    0.48275   1.00
H2       -0.16169   0.31027    0.50090   1.00
C4       0.69283    0.82835    0.45088   1.00
C4       0.64057    0.80406    0.46599   1.00
C3       0.74496    0.81094    0.45036   1.00
C3       0.63882    0.76509    0.48310   1.00
C3       0.69415    0.87345    0.43553   1.00
C3       0.58666    0.81907    0.46405   1.00
C2       0.79867    0.88231    0.42040   1.00
C2       0.53396    0.75812    0.49614   1.00
C3       0.79666    0.83745    0.43562   1.00
C3       0.58665    0.74219    0.49766   1.00
C3       0.74600    0.89863    0.42057   1.00
C3       0.53619    0.79801    0.47934   1.00
H1       0.74677    0.77829    0.46064   1.00
H1       0.67561    0.75255    0.48555   1.00
C5       0.64350    0.89287    0.43517   1.00
C5       0.58363    0.85550    0.44698   1.00
H1       0.83331    0.82343    0.43609   1.00
H1       0.58769    0.71369    0.50962   1.00
H1       0.74521    0.92942    0.40932   1.00
H1       0.50044    0.81288    0.47840   1.00
O3       0.65126    0.94479    0.42255   1.00
O3       0.52560    0.85886    0.44273   1.00
Si1      0.68703    1.02284    0.43111   1.00
Si1      0.46418    0.79693    0.42993   1.00
C6       0.69252    1.06297    0.40767   1.00
C6       0.62809    1.02786    0.44746   1.00
C6       0.76864    1.05152    0.44164   1.00
C6       0.47373    0.72685    0.42285   1.00
C6       0.39361    0.76886    0.44612   1.00
C6       0.44934    0.83341    0.40831   1.00
C6       0.72164    1.04070    0.38949   1.00
H2       0.63893    1.04375    0.40400   1.00
C6       0.72777    1.14267    0.40606   1.00
H2       0.57959    0.98680    0.44176   1.00
C6       0.62981    1.01247    0.47052   1.00
C6       0.62164    1.09351    0.44685   1.00
H2       0.79306    1.03645    0.43005   1.00
C6       0.81579    1.13034    0.44450   1.00
C6       0.77543    1.02031    0.46221   1.00
C6       0.53742    0.74127    0.40990   1.00
C6       0.46527    0.67309    0.43925   1.00
H2       0.43006    0.69823    0.41285   1.00
H2       0.40486    0.74422    0.45855   1.00
C6       0.38383    0.82589    0.45629   1.00
C6       0.32238    0.71470    0.43757   1.00
H2       0.41753    0.85355    0.41392   1.00
C6       0.51294    0.89599    0.39886   1.00
C6       0.40924    0.78524    0.39018   1.00
H2       0.69288    0.98555    0.38721   1.00
H2       0.77503    1.05564    0.39200   1.00
H2       0.71846    1.06386    0.37528   1.00
H2       0.70253    1.15670    0.39444   1.00
H2       0.72600    1.16656    0.42017   1.00
H2       0.78125    1.16607    0.40158   1.00
H2       0.58281    1.00299    0.47804   1.00
H2       0.63383    0.96708    0.47294   1.00
H2       0.67223    1.05540    0.47822   1.00
H2       0.61012    1.10348    0.43159   1.00
H2       0.57991    1.08805    0.45651   1.00
H2       0.66841    1.13804    0.45217   1.00
H2       0.79007    1.15193    0.45320   1.00
H2       0.86322    1.14300    0.45238   1.00
H2       0.83165    1.15636    0.42998   1.00
H2       0.77117    1.04731    0.47533   1.00
H2       0.73761    0.96697    0.46409   1.00
H2       0.82537    1.02390    0.46309   1.00
H2       0.58223    0.75642    0.41934   1.00
H2       0.52794    0.69538    0.40169   1.00
H2       0.54997    0.78092    0.39862   1.00
H2       0.46299    0.62841    0.43209   1.00
H2       0.50763    0.69325    0.44990   1.00
H2       0.41812    0.65432    0.44786   1.00
H2       0.34635    0.80448    0.46855   1.00
H2       0.43130    0.86551    0.46305   1.00
H2       0.36608    0.85013    0.44549   1.00
H2       0.32385    0.67166    0.43067   1.00
H2       0.28467    0.69404    0.44979   1.00
H2       0.30393    0.73702    0.42630   1.00
H2       0.55034    0.88293    0.39331   1.00
H2       0.49883    0.91796    0.38630   1.00
H2       0.53773    0.93574    0.41019   1.00
H2       0.39434    0.81160    0.37919   1.00
H2       0.44015    0.76799    0.38218   1.00
H2       0.36243    0.74044    0.39522   1.00
C4       0.16667    -0.13711   0.45192   1.00
C4       0.19128    -0.16576   0.46671   1.00
C3       0.11846    -0.11617   0.45626   1.00
C3       0.16561    -0.18205   0.48682   1.00
C3       0.19047    -0.12969   0.43151   1.00
C3       0.24465    -0.17894   0.46132   1.00
C2       0.11688    -0.08277   0.42092   1.00
C2       0.24269    -0.22503   0.49562   1.00
C3       0.09394    -0.09011   0.44118   1.00
C3       0.19101    -0.21028   0.50094   1.00
C3       0.16605    -0.10210   0.41660   1.00
C3       0.26750    -0.21010   0.47550   1.00
H1       0.09993    -0.11902   0.47052   1.00
H1       0.12741    -0.17430   0.49177   1.00
C5       0.23870    -0.14961   0.42616   1.00
C5       0.27456    -0.16159   0.44176   1.00
H1       0.05872    -0.07627   0.44519   1.00
H1       0.17091    -0.22047   0.51532   1.00
H1       0.18500    -0.09532   0.40215   1.00
H1       0.30264    -0.22321   0.47100   1.00
O3       0.25286    -0.15309   0.40601   1.00
O3       0.33454    -0.16121   0.43754   1.00
Si1      0.21118    -0.22529   0.39381   1.00
Si1      0.40697    -0.09318   0.44292   1.00
C6       0.24284    -0.19311   0.36939   1.00
C6       0.24163    -0.27881   0.40251   1.00
C6       0.12181    -0.26112   0.39493   1.00
C6       0.40506    -0.02411   0.45477   1.00
C6       0.44668    -0.12447   0.45908   1.00
C6       0.45450    -0.06592   0.42028   1.00
C6       0.24175    -0.12684   0.36316   1.00
H2       0.29672    -0.17758   0.37084   1.00
C6       0.21678    -0.24058   0.35022   1.00
H2       0.29270    -0.24191   0.40779   1.00
C6       0.20514    -0.32654   0.42102   1.00
C6       0.25182    -0.32469   0.38677   1.00
H2       0.11565    -0.21745   0.39124   1.00
C6       0.07810    -0.31772   0.37901   1.00
C6       0.08352    -0.29057   0.41558   1.00
C6       0.36620    0.00761    0.44381   1.00
C6       0.38586    -0.02907   0.47778   1.00
H2       0.45867    0.01562    0.45444   1.00
H2       0.41665    -0.13719   0.47299   1.00
C6       0.44356    -0.19223   0.45227   1.00
C6       0.52227    -0.07418   0.46530   1.00
H2       0.47658    -0.09894   0.41884   1.00
C6       0.41301    -0.07727   0.40037   1.00
C6       0.51585    0.00894    0.41928   1.00
H2       0.26883    -0.08594   0.37417   1.00
H2       0.18955    -0.13640   0.36195   1.00
H2       0.26688    -0.10742   0.34854   1.00
H2       0.25796    -0.22438   0.33914   1.00
H2       0.19876    -0.29378   0.35377   1.00
H2       0.17528    -0.23826   0.34252   1.00
H2       0.23690    -0.34556   0.42753   1.00
H2       0.19554    -0.29998   0.43320   1.00
H2       0.15682    -0.37071   0.41652   1.00
H2       0.28554    -0.29438   0.37444   1.00
H2       0.27575    -0.35131   0.39378   1.00
H2       0.20309    -0.36331   0.38041   1.00
H2       0.09005    -0.35884   0.37931   1.00
H2       0.02334    -0.34022   0.38173   1.00
H2       0.08627    -0.29690   0.36376   1.00
H2       0.06941    -0.34383   0.41773   1.00
H2       0.11290    -0.26284   0.42875   1.00
H2       0.03633    -0.28842   0.41591   1.00
H2       0.31168    -0.02100   0.44693   1.00
H2       0.38475    0.05978    0.44906   1.00
H2       0.37333    0.01005    0.42744   1.00
H2       0.39627    0.02057    0.48352   1.00
H2       0.33207    -0.06463   0.48049   1.00
H2       0.41566    -0.04431   0.48715   1.00
H2       0.45891    -0.21358   0.46473   1.00
H2       0.39180    -0.23097   0.44800   1.00
H2       0.47715    -0.18430   0.43943   1.00
H2       0.52893    -0.02585   0.47087   1.00
H2       0.53792    -0.09600   0.47755   1.00
H2       0.55709    -0.06380   0.45260   1.00
H2       0.38604    -0.04864   0.40028   1.00
H2       0.44572    -0.06275   0.38697   1.00
H2       0.37541    -0.13092   0.39875   1.00
H2       0.54720    0.01624    0.40586   1.00
H2       0.49830    0.04591    0.41849   1.00
H2       0.54929    0.02130    0.43240   1.00
C4       0.30886    0.13679    0.04965   1.00
C4       0.36090    0.16421    0.03447   1.00
C3       0.27516    0.06748    0.05588   1.00
C3       0.38003    0.12389    0.02271   1.00
C3       0.28821    0.18041    0.05902   1.00
C3       0.39631    0.23589    0.03071   1.00
C2       0.20176    0.08451    0.07974   1.00
C2       0.46561    0.22329    0.00372   1.00
C3       0.22282    0.04193    0.07042   1.00
C3       0.43138    0.15266    0.00789   1.00
C3       0.23619    0.15393    0.07394   1.00
C3       0.44585    0.26345    0.01512   1.00
H1       0.28782    0.03359    0.05008   1.00
H1       0.35694    0.07239    0.02448   1.00
C5       0.31986    0.25024    0.05350   1.00
C5       0.38177    0.27964    0.04239   1.00
H1       0.19995    -0.00876   0.07421   1.00
H1       0.44347    0.12110    -0.00002   1.00
H1       0.22323    0.18624    0.08093   1.00
H1       0.46762    0.31417    0.01174   1.00
O3       0.29238    0.28923    0.05998   1.00
O3       0.42408    0.34960    0.04184   1.00
Si1      0.23847    0.29765    0.04553   1.00
Si1      0.49087    0.38448    0.05659   1.00
C6       0.21472    0.34011    0.06338   1.00
C6       0.28525    0.35210    0.02534   1.00
C6       0.16782    0.21899    0.03818   1.00
C6       0.50751    0.33050    0.07198   1.00
C6       0.55853    0.42847    0.03951   1.00
C6       0.48439    0.44519    0.07169   1.00
C6       0.19665    0.30791    0.08514   1.00
H2       0.26194    0.38872    0.06520   1.00
C6       0.15845    0.35901    0.05828   1.00
H2       0.33608    0.38141    0.03194   1.00
C6       0.29442    0.31951    0.00552   1.00
C6       0.26622    0.40614    0.01792   1.00
H2       0.15214    0.19138    0.05257   1.00
C6       0.10370    0.22030    0.02983   1.00
C6       0.17833    0.17177    0.02289   1.00
C6       0.45075    0.28163    0.08708   1.00
C6       0.53699    0.28772    0.06210   1.00
H2       0.54921    0.36696    0.08154   1.00
H2       0.56151    0.38798    0.03144   1.00
C6       0.54747    0.47083    0.02269   1.00
C6       0.63092    0.47601    0.04867   1.00
H2       0.50262    0.48966    0.06182   1.00
C6       0.41096    0.42748    0.07797   1.00
C6       0.52873    0.47088    0.09141   1.00
H2       0.23821    0.30255    0.09155   1.00
H2       0.15088    0.25749    0.08489   1.00
H2       0.18765    0.33998    0.09563   1.00
H2       0.17021    0.40672    0.06580   1.00
H2       0.15412    0.36573    0.04214   1.00
H2       0.10805    0.32049    0.06365   1.00
H2       0.33545    0.35814    -0.00383   1.00
H2       0.30834    0.28091    0.00874   1.00
H2       0.24799    0.29652    -0.00361   1.00
H2       0.26818    0.43899    0.03031   1.00
H2       0.30221    0.43996    0.00646   1.00
H2       0.21537    0.38153    0.01115   1.00
H2       0.11741    0.25643    0.01731   1.00
H2       0.06447    0.17022    0.02435   1.00
H2       0.07903    0.23370    0.04164   1.00
H2       0.17457    0.18427    0.00713   1.00
H2       0.22704    0.17411    0.02453   1.00
H2       0.13898    0.11853    0.02522   1.00
H2       0.41296    0.23488    0.07966   1.00
H2       0.47293    0.26669    0.09940   1.00
H2       0.42436    0.30553    0.09405   1.00
H2       0.55344    0.26479    0.07381   1.00
H2       0.49950    0.24615    0.05281   1.00
H2       0.58173    0.31900    0.05277   1.00
H2       0.58654    0.48645    0.01093   1.00
H2       0.49818    0.44073    0.01519   1.00
H2       0.54996    0.51680    0.02881   1.00
H2       0.64396    0.44989    0.06021   1.00
H2       0.66989    0.49245    0.03683   1.00
H2       0.63454    0.52179    0.05539   1.00
H2       0.38590    0.38180    0.08737   1.00
H2       0.41112    0.46934    0.08626   1.00
H2       0.37996    0.41854    0.06452   1.00
H2       0.52823    0.51538    0.09766   1.00
H2       0.50963    0.43151    0.10314   1.00
H2       0.58191    0.48646    0.08845   1.00
C4       0.82812    0.69233    0.04928   1.00
C4       0.80375    0.64015    0.03414   1.00
C3       0.80454    0.73953    0.05131   1.00
C3       0.75809    0.63388    0.01841   1.00
C3       0.87970    0.69882    0.06304   1.00
C3       0.82574    0.59107    0.03460   1.00
C2       0.88240    0.79853    0.07965   1.00
C2       0.75803    0.53410    0.00381   1.00
C3       0.83117    0.79142    0.06600   1.00
C3       0.73534    0.58195    0.00378   1.00
C3       0.90499    0.75071    0.07799   1.00
C3       0.80451    0.54093    0.01921   1.00
H1       0.76716    0.73745    0.04223   1.00
H1       0.74035    0.66709    0.01705   1.00
C5       0.90548    0.65325    0.06183   1.00
C5       0.86924    0.59257    0.05030   1.00
H1       0.81250    0.82438    0.06666   1.00
H1       0.70187    0.57956    -0.00713   1.00
H1       0.94062    0.75356    0.08812   1.00
H1       0.82412    0.50890    0.01901   1.00
O3       0.96268    0.66648    0.07276   1.00
O3       0.88018    0.53840    0.05338   1.00
Si1      1.03787    0.70842    0.06222   1.00
Si1      0.82584    0.47417    0.06714   1.00
C6       1.08623    0.71848    0.08428   1.00
C6       1.04447    0.65309    0.04474   1.00
C6       1.05602    0.78810    0.05222   1.00
C6       0.75372    0.47572    0.07674   1.00
C6       0.79914    0.40432    0.05073   1.00
C6       0.87200    0.46466    0.08714   1.00
C6       1.06532    0.74390    0.10365   1.00
H2       1.07294    0.66603    0.08763   1.00
C6       1.16625    0.76034    0.08379   1.00
H2       1.00843    0.60312    0.05094   1.00
C6       1.02129    0.65251    0.02235   1.00
C6       1.11393    0.65416    0.04299   1.00
H2       1.04115    0.80972    0.06470   1.00
C6       1.13251    0.84097    0.04753   1.00
C6       1.01652    0.79063    0.03294   1.00
C6       0.76590    0.53755    0.09026   1.00
C6       0.69353    0.46156    0.06210   1.00
H2       0.73145    0.43174    0.08688   1.00
H2       0.76848    0.41195    0.03939   1.00
C6       0.85672    0.40106    0.03849   1.00
C6       0.75268    0.33159    0.05981   1.00
H2       0.89474    0.43677    0.08031   1.00
C6       0.93347    0.53154    0.09555   1.00
C6       0.83136    0.42211    0.10611   1.00
H2       1.01144    0.71090    0.10728   1.00
H2       1.07451    0.79572    0.10159   1.00
H2       1.09412    0.74375    0.11694   1.00
H2       1.18707    0.73837    0.09443   1.00
H2       1.18718    0.76093    0.06891   1.00
H2       1.18637    0.81332    0.08841   1.00
H2       1.01412    0.60706    0.01435   1.00
H2       0.97271    0.65132    0.02156   1.00
H2       1.05934    0.69692    0.01398   1.00
H2       1.13014    0.64474    0.05763   1.00
H2       1.10976    0.61405    0.03282   1.00
H2       1.15390    0.70288    0.03701   1.00
H2       1.15519    0.81889    0.03767   1.00
H2       1.13833    0.88680    0.04009   1.00
H2       1.16236    0.85905    0.06136   1.00
H2       1.04125    0.78924    0.01888   1.00
H2       0.96424    0.74921    0.03221   1.00
H2       1.01471    0.83801    0.03282   1.00
H2       0.77415    0.58115    0.08114   1.00
H2       0.72143    0.52384    0.09983   1.00
H2       0.80938    0.55392    0.10035   1.00
H2       0.64923    0.45473    0.07070   1.00
H2       0.70690    0.50337    0.05157   1.00
H2       0.67634    0.41493    0.05333   1.00
H2       0.83465    0.36317    0.02636   1.00
H2       0.89105    0.44988    0.03126   1.00
H2       0.88716    0.38723    0.04810   1.00
H2       0.70962    0.32847    0.06817   1.00
H2       0.73143    0.29357    0.04769   1.00
H2       0.78133    0.31691    0.06994   1.00
H2       0.91751    0.56545    0.10217   1.00
H2       0.96168    0.52093    0.10704   1.00
H2       0.96897    0.55891    0.08336   1.00
H2       0.86378    0.41120    0.11589   1.00
H2       0.81246    0.44953    0.11521   1.00
H2       0.78801    0.37307    0.10179   1.00
C4       -0.13712   0.16666    0.04808   1.00
C4       -0.16577   0.19127    0.03328   1.00
C3       -0.11630   0.11836    0.04375   1.00
C3       -0.18218   0.16551    0.01319   1.00
C3       -0.12957   0.19056    0.06848   1.00
C3       -0.17883   0.24474    0.03867   1.00
C2       -0.08277   0.11688    0.07908   1.00
C2       -0.22503   0.24269    0.00438   1.00
C3       -0.09024   0.09383    0.05883   1.00
C3       -0.21040   0.19092    -0.00093   1.00
C3       -0.10198   0.16615    0.08339   1.00
C3       -0.20998   0.26760    0.02449   1.00
H1       -0.11925   0.09975    0.02949   1.00
H1       -0.17452   0.12724    0.00825   1.00
C5       -0.14937   0.23889    0.07383   1.00
C5       -0.16135   0.27473    0.05821   1.00
H1       -0.07649   0.05854    0.05483   1.00
H1       -0.22069   0.17076    -0.01530   1.00
H1       -0.09511   0.18516    0.09783   1.00
H1       -0.22299   0.30281    0.02898   1.00
O3       -0.15273   0.25316    0.09397   1.00
O3       -0.16084   0.33479    0.06242   1.00
Si1      -0.22488   0.21163    0.10620   1.00
Si1      -0.09278   0.40713    0.05700   1.00
C6       -0.19257   0.24337    0.13061   1.00
C6       -0.27834   0.24215    0.09751   1.00
C6       -0.26084   0.12224    0.10511   1.00
C6       -0.02382   0.40505    0.04513   1.00
C6       -0.12404   0.44686    0.04084   1.00
C6       -0.06535   0.45476    0.07962   1.00
C6       -0.12633   0.24220    0.13682   1.00
H2       -0.17697   0.29727    0.12914   1.00
C6       -0.23995   0.21746    0.14979   1.00
H2       -0.24141   0.29319    0.09220   1.00
C6       -0.32618   0.20563    0.07901   1.00
C6       -0.32410   0.25250    0.11326   1.00
H2       -0.21720   0.11602    0.10880   1.00
C6       -0.31740   0.07866    0.12106   1.00
C6       -0.29043   0.08387    0.08449   1.00
C6       0.00785    0.36615    0.05610   1.00
C6       -0.02891   0.38573    0.02213   1.00
H2       0.01597    0.45864    0.04544   1.00
H2       -0.13686   0.41676    0.02694   1.00
C6       -0.19172   0.44388    0.04766   1.00
C6       -0.07370   0.52239    0.03459   1.00
H2       -0.09830   0.47692    0.08106   1.00
C6       -0.07667   0.41335    0.09954   1.00
C6       0.00955    0.51604    0.08058   1.00
H2       -0.08546   0.26918    0.12579   1.00
H2       -0.13596   0.18997    0.13804   1.00
H2       -0.10681   0.26738    0.15142   1.00
H2       -0.22365   0.25870    0.16085   1.00
H2       -0.29316   0.19950    0.14626   1.00
H2       -0.23768   0.17595    0.15750   1.00
H2       -0.34516   0.23742    0.07251   1.00
H2       -0.29971   0.19592    0.06684   1.00
H2       -0.37037   0.15737    0.08354   1.00
H2       -0.29370   0.28626    0.12557   1.00
H2       -0.35068   0.27647    0.10624   1.00
H2       -0.36274   0.20383    0.11964   1.00
H2       -0.35846   0.09069    0.12077   1.00
H2       -0.33998   0.02387    0.11836   1.00
H2       -0.29651   0.08687    0.13630   1.00
H2       -0.34368   0.06983    0.08235   1.00
H2       -0.26273   0.11317    0.07130   1.00
H2       -0.28836   0.03664    0.08416   1.00
H2       -0.02084   0.31161    0.05300   1.00
H2       0.05999    0.38460    0.05083   1.00
H2       0.01038    0.37336    0.07246   1.00
H2       0.02068    0.39604    0.01637   1.00
H2       -0.06455   0.33194    0.01945   1.00
H2       -0.04413   0.41554    0.01276   1.00
H2       -0.21308   0.45922    0.03521   1.00
H2       -0.23049   0.39216    0.05196   1.00
H2       -0.18368   0.47755    0.06049   1.00
H2       -0.02541   0.52895    0.02900   1.00
H2       -0.09552   0.53804    0.02233   1.00
H2       -0.06320   0.55729    0.04728   1.00
H2       -0.04812   0.38631    0.09964   1.00
H2       -0.06205   0.44612    0.11293   1.00
H2       -0.13034   0.37582    0.10119   1.00
H2       0.01696    0.54746    0.09399   1.00
H2       0.04646    0.49841    0.08137   1.00
H2       0.02190    0.54943    0.06745   1.00
C4       0.53099    1.02865    0.88168   1.00
C4       0.50312    0.97490    0.86703   1.00
C3       0.60143    1.06661    0.88658   1.00
C3       0.54181    0.94963    0.85718   1.00
C3       0.48627    1.04513    0.89235   1.00
C3       0.43274    0.94438    0.86175   1.00
C2       0.58289    1.13431    0.91222   1.00
C2       0.44265    0.86498    0.83790   1.00
C3       0.62665    1.11772    0.90150   1.00
C3       0.51259    0.89663    0.84288   1.00
C3       0.51290    1.09773    0.90708   1.00
C3       0.40364    0.88908    0.84795   1.00
H1       0.63650    1.05839    0.87939   1.00
H1       0.59224    0.96870    0.86021   1.00
C5       0.41528    1.00915    0.88817   1.00
C5       0.39158    0.96869    0.87038   1.00
H1       0.67802    1.14313    0.90450   1.00
H1       0.54318    0.88084    0.83612   1.00
H1       0.48047    1.11027    0.91421   1.00
H1       0.35229    0.86493    0.84531   1.00
O3       0.37112    1.01714    0.90073   1.00
O3       0.32777    0.94954    0.86262   1.00
Si1      0.33436    0.96429    0.91954   1.00
Si1      0.32181    0.99174    0.84342   1.00
C6       0.29732    1.00842    0.93104   1.00
C6       0.27159    0.88616    0.90911   1.00
C6       0.39273    0.95848    0.93601   1.00
C6       0.39789    1.05832    0.83288   1.00
C6       0.27889    0.92808    0.82509   1.00
C6       0.26763    1.02280    0.85086   1.00
C6       0.34561    1.08712    0.93391   1.00
H2       0.25991    1.00342    0.91971   1.00
C6       0.25666    0.98273    0.95147   1.00
H2       0.26010    0.90246    0.89480   1.00
C6       0.29220    0.83186    0.90336   1.00
C6       0.20164    0.84524    0.92036   1.00
H2       0.43040    1.01209    0.93858   1.00
C6       0.36598    0.92678    0.95750   1.00
C6       0.43336    0.92315    0.92845   1.00
C6       0.44744    1.11766    0.84717   1.00
C6       0.44377    1.04054    0.81936   1.00
H2       0.37866    1.08158    0.82221   1.00
H2       0.31637    0.91376    0.82055   1.00
C6       0.21567    0.86057    0.83275   1.00
C6       0.25607    0.94884    0.80523   1.00
H2       0.21642    0.97916    0.84891   1.00
C6       0.27133    1.04346    0.87358   1.00
C6       0.26950    1.08230    0.83823   1.00
H2       0.36865    1.11219    0.91957   1.00
H2       0.38672    1.09783    0.94458   1.00
H2       0.31757    1.11132    0.93967   1.00
H2       0.21510    0.99414    0.95177   1.00
H2       0.23429    0.92811    0.95369   1.00
H2       0.28850    1.00794    0.96469   1.00
H2       0.25416    0.79305    0.89331   1.00
H2       0.34046    0.85434    0.89524   1.00
H2       0.29595    0.80581    0.91681   1.00
H2       0.17751    0.87613    0.92253   1.00
H2       0.16554    0.80067    0.91158   1.00
H2       0.20793    0.82706    0.93511   1.00
H2       0.32019    0.87665    0.95633   1.00
H2       0.40408    0.92086    0.96609   1.00
H2       0.35476    0.95962    0.96677   1.00
H2       0.40526    0.86816    0.93099   1.00
H2       0.44604    0.93100    0.91246   1.00
H2       0.48155    0.94348    0.93670   1.00
H2       0.48069    1.10460    0.85560   1.00
H2       0.48040    1.16339    0.83834   1.00
H2       0.42024    1.13165    0.85801   1.00
H2       0.48318    1.08620    0.81171   1.00
H2       0.46990    1.01989    0.82818   1.00
H2       0.41472    1.00419    0.80742   1.00
H2       0.19977    0.82045    0.82131   1.00
H2       0.22766    0.84165    0.84649   1.00
H2       0.17216    0.86733    0.83598   1.00
H2       0.29782    0.99467    0.79843   1.00
H2       0.23920    0.90826    0.79390   1.00
H2       0.21361    0.95770    0.80806   1.00
H2       0.32151    1.08547    0.87770   1.00
H2       0.23345    1.05829    0.87719   1.00
H2       0.26060    1.00035    0.88321   1.00
H2       0.22684    1.08973    0.84232   1.00
H2       0.31658    1.13044    0.84091   1.00
H2       0.26522    1.07170    0.82201   1.00
C4       -0.02247   0.50144    0.88365   1.00
C4       0.02970    0.52582    0.86851   1.00
C3       -0.02104   0.46752    0.90160   1.00
C3       0.08519    0.51329    0.86889   1.00
C3       -0.08004   0.51025    0.88069   1.00
C3       0.02691    0.56515    0.85200   1.00
C2       -0.13160   0.45063    0.91306   1.00
C2       0.13231    0.57560    0.83706   1.00
C3       -0.07425   0.44246    0.91585   1.00
C3       0.13545    0.53801    0.85371   1.00
C3       -0.13258   0.48573    0.89544   1.00
C3       0.07645    0.58710    0.83641   1.00
H1       0.01881    0.46024    0.90488   1.00
H1       0.09051    0.48548    0.88014   1.00
C5       -0.08461   0.54376    0.86308   1.00
C5       -0.02554   0.58189    0.85102   1.00
H1       -0.07066   0.41791    0.92848   1.00
H1       0.17473    0.52788    0.85487   1.00
H1       -0.17264   0.49410    0.89339   1.00
H1       0.07131    0.61142    0.82404   1.00
O3       -0.14486   0.54214    0.85862   1.00
O3       -0.02179   0.63056    0.83760   1.00
Si1      -0.20040   0.48303    0.84363   1.00
Si1      0.02062    0.71069    0.84422   1.00
C6       -0.26685   0.50133    0.84723   1.00
C6       -0.16764   0.50310    0.81876   1.00
C6       -0.22482   0.39955    0.85171   1.00
C6       0.06238    0.73161    0.86799   1.00
C6       0.08125    0.74830    0.82479   1.00
C6       -0.03594   0.74265    0.84259   1.00
C6       -0.28251   0.51071    0.86979   1.00
H2       -0.24578   0.55171    0.84032   1.00
C6       -0.33842   0.45644    0.83702   1.00
H2       -0.13375   0.55817    0.81970   1.00
C6       -0.12241   0.47350    0.81098   1.00
C6       -0.21786   0.49176    0.80092   1.00
H2       -0.23539   0.40135    0.86781   1.00
C6       -0.29175   0.33968    0.84242   1.00
C6       -0.17210   0.37374    0.85051   1.00
C6       0.01854    0.69816    0.88740   1.00
C6       0.12972    0.72893    0.87075   1.00
H2       0.07933    0.78585    0.86929   1.00
H2       0.11603    0.72882    0.82734   1.00
C6       0.05416    0.72660    0.80262   1.00
C6       0.12601    0.82783    0.82472   1.00
H2       -0.03643   0.75347    0.82648   1.00
C6       -0.11187   0.69189    0.84804   1.00
C6       -0.01655   0.81067    0.85399   1.00
H2       -0.23701   0.54981    0.87752   1.00
H2       -0.30193   0.46321    0.87834   1.00
H2       -0.32049   0.52699    0.87061   1.00
H2       -0.36078   0.48803    0.83315   1.00
H2       -0.33588   0.43181    0.82317   1.00
H2       -0.37462   0.41648    0.84713   1.00
H2       -0.09393   0.50074    0.79743   1.00
H2       -0.08467   0.47887    0.82215   1.00
H2       -0.15351   0.41972    0.80697   1.00
H2       -0.24537   0.51922    0.80348   1.00
H2       -0.19049   0.51100    0.78659   1.00
H2       -0.25461   0.43764    0.79887   1.00
H2       -0.29014   0.34120    0.82586   1.00
H2       -0.30026   0.28972    0.84720   1.00
H2       -0.33649   0.34135    0.84753   1.00
H2       -0.17286   0.35154    0.83575   1.00
H2       -0.11997   0.41334    0.85329   1.00
H2       -0.18439   0.33405    0.86188   1.00
H2       0.01094    0.64735    0.89007   1.00
H2       0.04404    0.72869    0.90083   1.00
H2       -0.03130   0.69426    0.88654   1.00
H2       0.15428    0.75227    0.88516   1.00
H2       0.12054    0.67698    0.87091   1.00
H2       0.16700    0.75716    0.85893   1.00
H2       0.09673    0.74313    0.79202   1.00
H2       0.02317    0.67119    0.80122   1.00
H2       0.02348    0.74878    0.79766   1.00
H2       0.14887    0.84756    0.83954   1.00
H2       0.16799    0.84440    0.81389   1.00
H2       0.09629    0.85168    0.82031   1.00
H2       -0.11797   0.67495    0.86377   1.00
H2       -0.14414   0.71437    0.84550   1.00
H2       -0.13138   0.64709    0.83842   1.00
H2       -0.04976   0.83042    0.84932   1.00
H2       -0.02160   0.80313    0.87041   1.00
H2       0.03556    0.85039    0.85067   1.00
C4       0.49955    0.47686    0.88359   1.00
C4       0.47502    0.50441    0.86842   1.00
C3       0.54354    0.51605    0.89965   1.00
C3       0.49689    0.57493    0.86671   1.00
C3       0.48017    0.40647    0.88263   1.00
C3       0.42572    0.45946    0.85410   1.00
C2       0.54964    0.41814    0.91310   1.00
C2       0.42413    0.55632    0.83702   1.00
C3       0.56823    0.48764    0.91393   1.00
C3       0.47169    0.60013    0.85156   1.00
C3       0.50461    0.37849    0.89741   1.00
C3       0.40317    0.48624    0.83843   1.00
H1       0.55875    0.56633    0.90147   1.00
H1       0.53208    0.61011    0.87633   1.00
C5       0.43628    0.36444    0.86697   1.00
C5       0.39960    0.38816    0.85535   1.00
H1       0.60031    0.51859    0.92512   1.00
H1       0.48891    0.65153    0.85117   1.00
H1       0.48876    0.32750    0.89686   1.00
H1       0.37122    0.45395    0.82753   1.00
O3       0.42688    0.30002    0.86409   1.00
O3       0.34275    0.34295    0.84437   1.00
Si1      0.47443    0.28831    0.84782   1.00
Si1      0.26727    0.31844    0.85374   1.00
C6       0.44654    0.20250    0.85405   1.00
C6       0.44725    0.29525    0.82332   1.00
C6       0.56264    0.34079    0.85235   1.00
C6       0.26189    0.35339    0.87718   1.00
C6       0.22815    0.34138    0.83475   1.00
C6       0.22412    0.22877    0.85521   1.00
C6       0.44412    0.18627    0.87725   1.00
H2       0.39337    0.17676    0.84913   1.00
C6       0.47871    0.16279    0.84364   1.00
H2       0.39452    0.28203    0.82607   1.00
C6       0.48206    0.36702    0.81296   1.00
C6       0.44380    0.24500    0.80645   1.00
H2       0.56619    0.33427    0.86865   1.00
C6       0.61178    0.31990    0.84198   1.00
C6       0.59746    0.41970    0.84848   1.00
C6       0.29915    0.34456    0.89591   1.00
C6       0.27618    0.42856    0.87799   1.00
H2       0.20762    0.32302    0.88069   1.00
H2       0.25517    0.39696    0.83539   1.00
C6       0.23728    0.32337    0.81246   1.00
C6       0.15073    0.31726    0.83742   1.00
H2       0.20553    0.21213    0.83981   1.00
C6       0.26871    0.19589    0.86012   1.00
C6       0.16006    0.19256    0.86933   1.00
H2       0.41304    0.20249    0.88562   1.00
H2       0.49520    0.21181    0.88389   1.00
H2       0.42147    0.13149    0.87988   1.00
H2       0.44016    0.10897    0.84196   1.00
H2       0.49909    0.18224    0.82864   1.00
H2       0.51994    0.16429    0.85263   1.00
H2       0.45161    0.36742    0.80014   1.00
H2       0.48701    0.40675    0.82328   1.00
H2       0.53251    0.38084    0.80716   1.00
H2       0.41168    0.19196    0.81107   1.00
H2       0.42131    0.25111    0.79248   1.00
H2       0.49462    0.25389    0.80272   1.00
H2       0.60315    0.31370    0.82563   1.00
H2       0.66547    0.35778    0.84447   1.00
H2       0.60545    0.27279    0.84831   1.00
H2       0.61437    0.43309    0.83280   1.00
H2       0.56468    0.44057    0.85180   1.00
H2       0.64259    0.44691    0.85810   1.00
H2       0.35296    0.38334    0.89625   1.00
H2       0.27660    0.34946    0.91003   1.00
H2       0.29534    0.29470    0.89620   1.00
H2       0.26152    0.43934    0.89275   1.00
H2       0.32985    0.46572    0.87583   1.00
H2       0.24677    0.43812    0.86670   1.00
H2       0.22159    0.34957    0.80166   1.00
H2       0.29061    0.33980    0.80917   1.00
H2       0.20696    0.26876    0.80947   1.00
H2       0.13981    0.32964    0.85244   1.00
H2       0.13482    0.34272    0.82640   1.00
H2       0.11902    0.26237    0.83502   1.00
H2       0.29262    0.21089    0.87501   1.00
H2       0.23889    0.14026    0.85957   1.00
H2       0.30896    0.21174    0.84891   1.00
H2       0.13206    0.13757    0.86657   1.00
H2       0.17447    0.20046    0.88534   1.00
H2       0.12447    0.21088    0.86662   1.00
C4       0.36098    0.19807    0.28467   1.00
C4       0.30727    0.16985    0.29933   1.00
C3       0.38484    0.26263    0.27536   1.00
C3       0.26797    0.20045    0.30477   1.00
C3       0.39226    0.15957    0.27863   1.00
C3       0.29157    0.10766    0.30926   1.00
C2       0.46751    0.25007    0.25440   1.00
C2       0.19846    0.10879    0.32880   1.00
C3       0.43636    0.28779    0.26057   1.00
C3       0.21548    0.17112    0.31923   1.00
C3       0.44504    0.18641    0.26395   1.00
C3       0.23657    0.07746    0.32315   1.00
H1       0.36564    0.29338    0.27911   1.00
H1       0.27603    0.24471    0.29829   1.00
C5       0.37081    0.09465    0.28735   1.00
C5       0.33033    0.07558    0.30518   1.00
H1       0.45118    0.33461    0.25425   1.00
H1       0.18916    0.19584    0.32269   1.00
H1       0.46830    0.15906    0.26018   1.00
H1       0.22318    0.03078    0.32915   1.00
O3       0.39278    0.05300    0.27914   1.00
O3       0.32517    0.02351    0.31736   1.00
Si1      0.34627    -0.00379   0.26213   1.00
Si1      0.37118    0.04296    0.33795   1.00
C6       0.40618    -0.02883   0.25560   1.00
C6       0.27535    -0.06987   0.27476   1.00
C6       0.32629    0.03122    0.24108   1.00
C6       0.42340    0.13011    0.34414   1.00
C6       0.31008    0.00213    0.35709   1.00
C6       0.42070    0.00299    0.33634   1.00
C6       0.48069    0.03056    0.25153   1.00
H2       0.40925    -0.05321   0.26954   1.00
C6       0.39090    -0.08219   0.23829   1.00
H2       0.29476    -0.06533   0.29017   1.00
C6       0.20922    -0.06472   0.27673   1.00
C6       0.24994    -0.14530   0.26826   1.00
H2       0.37585    0.07515    0.23731   1.00
C6       0.30080    -0.01325   0.22137   1.00
C6       0.27562    0.05909    0.24379   1.00
C6       0.47751    0.17770    0.32821   1.00
C6       0.39004    0.17103    0.35280   1.00
H2       0.45297    0.12798    0.35690   1.00
H2       0.28382    0.03141    0.35786   1.00
C6       0.25310    -0.07300   0.35259   1.00
C6       0.33678    0.00233    0.37898   1.00
H2       0.38582    -0.04950   0.34099   1.00
C6       0.44517    -0.00289   0.31472   1.00
C6       0.48452    0.02939    0.35050   1.00
H2       0.50065    0.06555    0.26439   1.00
H2       0.48287    0.05999    0.23812   1.00
H2       0.51552    0.01093    0.24913   1.00
H2       0.41454    -0.11284   0.24187   1.00
H2       0.33671    -0.11710   0.23611   1.00
H2       0.41185    -0.05785   0.22370   1.00
H2       0.17525    -0.09994   0.28830   1.00
H2       0.22035    -0.01405   0.28136   1.00
H2       0.18098    -0.07769   0.26246   1.00
H2       0.29072    -0.15757   0.26925   1.00
H2       0.20924    -0.18140   0.27824   1.00
H2       0.22988    -0.15485   0.25280   1.00
H2       0.25740    -0.06368   0.22458   1.00
H2       0.28517    0.01040    0.20965   1.00
H2       0.34114    -0.01910   0.21446   1.00
H2       0.22257    0.01923    0.24176   1.00
H2       0.27909    0.08190    0.25851   1.00
H2       0.28627    0.09851    0.23247   1.00
H2       0.45523    0.19552    0.31680   1.00
H2       0.51830    0.22297    0.33562   1.00
H2       0.50141    0.15260    0.32046   1.00
H2       0.42919    0.22073    0.35851   1.00
H2       0.36132    0.18070    0.34135   1.00
H2       0.35619    0.14499    0.36554   1.00
H2       0.21165    -0.08977   0.36361   1.00
H2       0.23059    -0.07749   0.33760   1.00
H2       0.27246    -0.10844   0.35332   1.00
H2       0.37560    0.05342    0.38368   1.00
H2       0.29510    -0.01542   0.38996   1.00
H2       0.35815    -0.03141   0.38008   1.00
H2       0.47878    0.04691    0.30800   1.00
H2       0.47200    -0.03174   0.31489   1.00
H2       0.40148    -0.02992   0.30477   1.00
H2       0.50449    -0.00572   0.35035   1.00
H2       0.52556    0.07933    0.34565   1.00
H2       0.47206    0.03343    0.36622   1.00
C4       0.83295    0.63703    0.28527   1.00
C4       0.85933    0.69064    0.29997   1.00
C3       0.84120    0.57898    0.28655   1.00
C3       0.90179    0.69464    0.31639   1.00
C3       0.79711    0.64170    0.26809   1.00
C3       0.84257    0.74343    0.29837   1.00
C2       0.78100    0.53248    0.25439   1.00
C2       0.91191    0.80155    0.32881   1.00
C3       0.81630    0.52832    0.27149   1.00
C3       0.92685    0.74821    0.33052   1.00
C3       0.77127    0.58941    0.25326   1.00
C3       0.87073    0.79847    0.31227   1.00
H1       0.86534    0.57168    0.29851   1.00
H1       0.91611    0.65901    0.31849   1.00
C5       0.78706    0.69840    0.26589   1.00
C5       0.79836    0.74142    0.28283   1.00
H1       0.82423    0.48774    0.27316   1.00
H1       0.95685    0.74814    0.34219   1.00
H1       0.74403    0.59251    0.24131   1.00
H1       0.86179    0.83806    0.31015   1.00
O3       0.76279    0.70849    0.24783   1.00
O3       0.77082    0.78383    0.28334   1.00
Si1      0.81627    0.75771    0.23048   1.00
Si1      0.70138    0.76037    0.29641   1.00
C6       0.75584    0.73910    0.21104   1.00
C6       0.85139    0.84259    0.23892   1.00
C6       0.87649    0.73354    0.22349   1.00
C6       0.66627    0.68287    0.31006   1.00
C6       0.72531    0.82827    0.31343   1.00
C6       0.64025    0.75929    0.27966   1.00
C6       0.70325    0.66162    0.20760   1.00
H2       0.72603    0.76102    0.21702   1.00
C6       0.77869    0.77011    0.18923   1.00
H2       0.81174    0.83895    0.24912   1.00
C6       0.91828    0.87413    0.25184   1.00
C6       0.86298    0.89894    0.22310   1.00
H2       0.84434    0.67861    0.22121   1.00
C6       0.91588    0.76276    0.20307   1.00
C6       0.93353    0.74344    0.23898   1.00
C6       0.64722    0.61617    0.29802   1.00
C6       0.70141    0.67929    0.33013   1.00
H2       0.61773    0.67668    0.31526   1.00
H2       0.76035    0.82374    0.32381   1.00
C6       0.76674    0.90166    0.30420   1.00
C6       0.66796    0.82745    0.32684   1.00
H2       0.65346    0.81265    0.27869   1.00
C6       0.64288    0.73781    0.25736   1.00
C6       0.56346    0.71865    0.28614   1.00
H2       0.67598    0.63712    0.22155   1.00
H2       0.72849    0.63419    0.20219   1.00
H2       0.66462    0.65480    0.19644   1.00
H2       0.73997    0.77940    0.18247   1.00
H2       0.82654    0.81824    0.18920   1.00
H2       0.78468    0.73562    0.17895   1.00
H2       0.92642    0.92028    0.25962   1.00
H2       0.91622    0.83946    0.26360   1.00
H2       0.96280    0.88822    0.24231   1.00
H2       0.81589    0.88648    0.21515   1.00
H2       0.87995    0.94812    0.23049   1.00
H2       0.90180    0.90603    0.21200   1.00
H2       0.94045    0.81831    0.20269   1.00
H2       0.95533    0.74900    0.20069   1.00
H2       0.88205    0.74186    0.19010   1.00
H2       0.97847    0.79418    0.23794   1.00
H2       0.91689    0.73604    0.25464   1.00
H2       0.95031    0.70666    0.23585   1.00
H2       0.69127    0.60962    0.29580   1.00
H2       0.60919    0.57144    0.30634   1.00
H2       0.62547    0.61519    0.28322   1.00
H2       0.66877    0.63161    0.33820   1.00
H2       0.74961    0.68109    0.32731   1.00
H2       0.71068    0.72031    0.34061   1.00
H2       0.78905    0.93972    0.31629   1.00
H2       0.80900    0.90710    0.29484   1.00
H2       0.73483    0.91445    0.29491   1.00
H2       0.63748    0.77848    0.33442   1.00
H2       0.69026    0.86623    0.33874   1.00
H2       0.63401    0.83838    0.31786   1.00
H2       0.63298    0.68558    0.25634   1.00
H2       0.60610    0.74235    0.24772   1.00
H2       0.69302    0.77111    0.25099   1.00
H2       0.53223    0.73040    0.27611   1.00
H2       0.54341    0.66364    0.28548   1.00
H2       0.55599    0.73170    0.30147   1.00
C4       0.80387    0.16678    0.28525   1.00
C4       0.83116    0.14043    0.29995   1.00
C3       0.73641    0.15569    0.28603   1.00
C3       0.79192    0.09534    0.31580   1.00
C3       0.84558    0.20559    0.26862   1.00
C3       0.90159    0.16001    0.29894   1.00
C2       0.75139    0.21893    0.25440   1.00
C2       0.88975    0.08816    0.32880   1.00
C3       0.71072    0.18069    0.27098   1.00
C3       0.82052    0.07040    0.32994   1.00
C3       0.81913    0.23145    0.25379   1.00
C3       0.92871    0.13201    0.31281   1.00
H1       0.70403    0.12933    0.29759   1.00
H1       0.74132    0.07893    0.31746   1.00
C5       0.91353    0.21856    0.26694   1.00
C5       0.94449    0.20688    0.28400   1.00
H1       0.66136    0.17065    0.27226   1.00
H1       0.78983    0.03841    0.34119   1.00
H1       0.85024    0.26080    0.24225   1.00
H1       0.97808    0.14310    0.31109   1.00
O3       0.94958    0.24591    0.24929   1.00
O3       1.01461    0.23676    0.28518   1.00
Si1      0.94955    0.19554    0.23156   1.00
Si1      1.05701    0.30504    0.29903   1.00
C6       0.99177    0.25870    0.21283   1.00
C6       1.00093    0.16238    0.24009   1.00
C6       0.86686    0.13387    0.22359   1.00
C6       1.01063    0.33588    0.31262   1.00
C6       1.10101    0.28154    0.31617   1.00
C6       1.11750    0.36935    0.28312   1.00
C6       0.96444    0.30941    0.20959   1.00
H2       1.04258    0.28935    0.21937   1.00
C6       1.00358    0.23932    0.19094   1.00
H2       1.03479    0.20146    0.25080   1.00
C6       0.96635    0.09396    0.25229   1.00
C6       1.04893    0.15487    0.22451   1.00
H2       0.84245    0.16457    0.22137   1.00
C6       0.86053    0.09738    0.20284   1.00
C6       0.81950    0.07427    0.23835   1.00
C6       0.96253    0.35386    0.30040   1.00
C6       0.97039    0.29749    0.33217   1.00
H2       1.05114    0.38452    0.31844   1.00
H2       1.06099    0.24436    0.32603   1.00
C6       1.13651    0.24355    0.30688   1.00
C6       1.15468    0.33843    0.33035   1.00
H2       1.15917    0.35830    0.28234   1.00
C6       1.09554    0.36839    0.26066   1.00
C6       1.15028    0.44518    0.29037   1.00
H2       0.96449    0.33451    0.22374   1.00
H2       0.91239    0.28310    0.20366   1.00
H2       0.99647    0.34985    0.19892   1.00
H2       1.05165    0.28003    0.18479   1.00
H2       1.00597    0.19258    0.19059   1.00
H2       0.96369    0.23293    0.18036   1.00
H2       1.00461    0.08672    0.26027   1.00
H2       0.93163    0.09316    0.26384   1.00
H2       0.93832    0.05027    0.24226   1.00
H2       1.08310    0.20332    0.21712   1.00
H2       1.08171    0.13880    0.23200   1.00
H2       1.01950    0.11688    0.21293   1.00
H2       0.89327    0.07476    0.20250   1.00
H2       0.80822    0.05681    0.19983   1.00
H2       0.87370    0.13253    0.19020   1.00
H2       0.82752    0.03073    0.23703   1.00
H2       0.82642    0.08906    0.25417   1.00
H2       0.76592    0.05592    0.23474   1.00
H2       0.91307    0.30890    0.29754   1.00
H2       0.95306    0.38974    0.30892   1.00
H2       0.98445    0.37778    0.28590   1.00
H2       0.95270    0.32777    0.34035   1.00
H2       0.92548    0.24872    0.32870   1.00
H2       1.00202    0.28856    0.34279   1.00
H2       1.15221    0.22100    0.31891   1.00
H2       1.10184    0.20177    0.29698   1.00
H2       1.18179    0.27776    0.29812   1.00
H2       1.13360    0.36651    0.33801   1.00
H2       1.17112    0.31594    0.34219   1.00
H2       1.20001    0.37461    0.32192   1.00
H2       1.05200    0.37635    0.25942   1.00
H2       1.13719    0.40726    0.25156   1.00
H2       1.08127    0.31943    0.25383   1.00
H2       1.19392    0.47874    0.28086   1.00
H2       1.11379    0.46333    0.28962   1.00
H2       1.16916    0.45154    0.30588   1.00
C4       0.80591    0.64371    0.78319   1.00
C4       0.83270    0.69574    0.79838   1.00
C3       0.75246    0.63296    0.76973   1.00
C3       0.80467    0.73806    0.80286   1.00
C3       0.83298    0.59896    0.78141   1.00
C3       0.89088    0.70671    0.80981   1.00
C2       0.75224    0.53521    0.75354   1.00
C2       0.88890    0.79882    0.82966   1.00
C3       0.72607    0.57999    0.75539   1.00
C3       0.83235    0.78861    0.81793   1.00
C3       0.80652    0.54663    0.76659   1.00
C3       0.91619    0.75594    0.82552   1.00
H1       0.73130    0.66345    0.76991   1.00
H1       0.76306    0.73313    0.79539   1.00
C5       0.88648    0.60694    0.79439   1.00
C5       0.92316    0.66818    0.80565   1.00
H1       0.68707    0.57437    0.74617   1.00
H1       0.81032    0.81809    0.82039   1.00
H1       0.82772    0.51612    0.76511   1.00
H1       0.95510    0.76017    0.83442   1.00
O3       0.90459    0.55722    0.79496   1.00
O3       0.98663    0.68679    0.81358   1.00
Si1      0.87043    0.49651    0.81186   1.00
Si1      1.05447    0.74368    0.80161   1.00
C6       0.90364    0.44624    0.80229   1.00
C6       0.90691    0.53253    0.83553   1.00
C6       0.78041    0.45164    0.81133   1.00
C6       1.04330    0.78105    0.77947   1.00
C6       1.09719    0.80701    0.82005   1.00
C6       1.10459    0.70613    0.79622   1.00
C6       0.89622    0.43299    0.77884   1.00
H2       0.95827    0.47882    0.80495   1.00
C6       0.88418    0.37566    0.81213   1.00
H2       0.95573    0.57602    0.83104   1.00
C6       0.87116    0.56259    0.84891   1.00
C6       0.92481    0.49010    0.85049   1.00
H2       0.76976    0.44131    0.79515   1.00
C6       0.74297    0.38055    0.82216   1.00
C6       0.74050    0.48811    0.81853   1.00
C6       1.00067    0.73278    0.76169   1.00
C6       1.02040    0.83564    0.78141   1.00
H2       1.09527    0.81024    0.77365   1.00
H2       1.06508    0.82994    0.82188   1.00
C6       1.10222    0.78135    0.84169   1.00
C6       1.17013    0.86654    0.81466   1.00
H2       1.13153    0.71088    0.81040   1.00
C6       1.06515    0.62824    0.79150   1.00
C6       1.16098    0.73993    0.77951   1.00
H2       0.91862    0.48069    0.77030   1.00
H2       0.84267    0.40237    0.77442   1.00
H2       0.92256    0.40606    0.77394   1.00
H2       0.92721    0.36660    0.81109   1.00
H2       0.87054    0.37260    0.82805   1.00
H2       0.84151    0.33309    0.80437   1.00
H2       0.90559    0.59563    0.86077   1.00
H2       0.85648    0.59388    0.84012   1.00
H2       0.82590    0.52218    0.85636   1.00
H2       0.95865    0.47476    0.84343   1.00
H2       0.95178    0.52005    0.86387   1.00
H2       0.87879    0.44465    0.85575   1.00
H2       0.75991    0.38446    0.83786   1.00
H2       0.68758    0.35876    0.82229   1.00
H2       0.75147    0.34333    0.81427   1.00
H2       0.73115    0.48313    0.83485   1.00
H2       0.76643    0.54209    0.81507   1.00
H2       0.69072    0.46524    0.81107   1.00
H2       0.94614    0.71178    0.76397   1.00
H2       1.01373    0.76077    0.74735   1.00
H2       1.01023    0.69056    0.75974   1.00
H2       1.02514    0.86068    0.76682   1.00
H2       0.96745    0.81334    0.78610   1.00
H2       1.05197    0.87602    0.79209   1.00
H2       1.11884    0.82262    0.85277   1.00
H2       1.05273    0.74022    0.84683   1.00
H2       1.13842    0.76289    0.84214   1.00
H2       1.17109    0.88910    0.79995   1.00
H2       1.18716    0.90737    0.82592   1.00
H2       1.20735    0.84927    0.81447   1.00
H2       1.03379    0.61636    0.77791   1.00
H2       1.09980    0.60823    0.78951   1.00
H2       1.03176    0.60068    0.80409   1.00
H2       1.19499    0.71864    0.77977   1.00
H2       1.13869    0.73148    0.76435   1.00
H2       1.19285    0.79471    0.78184   1.00
C4       0.35896    0.17058    0.78397   1.00
C4       0.30553    0.14403    0.79873   1.00
C3       0.36148    0.21118    0.76722   1.00
C3       0.24627    0.15019    0.79720   1.00
C3       0.41261    0.15511    0.78573   1.00
C3       0.31111    0.10945    0.81608   1.00
C2       0.46698    0.21948    0.75422   1.00
C2       0.19899    0.08761    0.82898   1.00
C3       0.41376    0.23466    0.75268   1.00
C3       0.19475    0.12333    0.81200   1.00
C3       0.46558    0.18035    0.77112   1.00
C3       0.25728    0.08022    0.83037   1.00
H1       0.32553    0.22509    0.76512   1.00
H1       0.23859    0.17399    0.78523   1.00
C5       0.41317    0.11478    0.80213   1.00
C5       0.36999    0.10362    0.81901   1.00
H1       0.41265    0.26341    0.74081   1.00
H1       0.15333    0.12983    0.81019   1.00
H1       0.50472    0.17043    0.77289   1.00
H1       0.26005    0.05189    0.84202   1.00
O3       0.45818    0.09057    0.80196   1.00
O3       0.38263    0.08273    0.83741   1.00
Si1      0.43424    0.01486    0.79282   1.00
Si1      0.42077    0.13926    0.85525   1.00
C6       0.51491    0.02068    0.79354   1.00
C6       0.37784    -0.04531   0.81051   1.00
C6       0.40279    0.00356    0.76777   1.00
C6       0.44150    0.22431    0.85045   1.00
C6       0.36297    0.10644    0.87554   1.00
C6       0.49452    0.13644    0.86209   1.00
C6       0.57575    0.08792    0.78469   1.00
H2       0.52468    0.02261    0.80981   1.00
C6       0.52515    -0.03846   0.78512   1.00
H2       0.39354    -0.01627   0.82462   1.00
C6       0.29982    -0.07132   0.80834   1.00
C6       0.38276    -0.11081   0.81459   1.00
H2       0.44169    0.04982    0.76028   1.00
C6       0.39835    -0.05761   0.75540   1.00
C6       0.33254    -0.00036   0.76365   1.00
C6       0.48755    0.26152    0.83171   1.00
C6       0.38370    0.24318    0.85058   1.00
H2       0.47235    0.25115    0.86366   1.00
H2       0.32045    0.11279    0.87064   1.00
C6       0.33124    0.02836    0.87985   1.00
C6       0.38691    0.14344    0.89646   1.00
H2       0.47570    0.09286    0.87234   1.00
C6       0.53113    0.12051    0.84471   1.00
C6       0.55185    0.19856    0.87399   1.00
H2       0.57991    0.13307    0.79205   1.00
H2       0.56966    0.09216    0.76840   1.00
H2       0.62439    0.08974    0.78712   1.00
H2       0.56400    -0.04208   0.79401   1.00
H2       0.47890    -0.08797   0.78571   1.00
H2       0.54293    -0.02975   0.76942   1.00
H2       0.27272    -0.09623   0.82230   1.00
H2       0.28970    -0.02985   0.80555   1.00
H2       0.27733    -0.10845   0.79608   1.00
H2       0.43407    -0.09790   0.81926   1.00
H2       0.34882    -0.14120   0.82694   1.00
H2       0.36845    -0.14329   0.80115   1.00
H2       0.36937    -0.10557   0.76364   1.00
H2       0.37394    -0.06349   0.74062   1.00
H2       0.44873    -0.04972   0.75200   1.00
H2       0.28964    -0.05221   0.76516   1.00
H2       0.32256    0.03155    0.77367   1.00
H2       0.33126    0.01633    0.74817   1.00
H2       0.45797    0.24926    0.81776   1.00
H2       0.51266    0.31682    0.83365   1.00
H2       0.52763    0.24888    0.82961   1.00
H2       0.40554    0.29854    0.85026   1.00
H2       0.35024    0.22282    0.83749   1.00
H2       0.35250    0.22526    0.86425   1.00
H2       0.28797    0.01063    0.89024   1.00
H2       0.31187    -0.00165   0.86596   1.00
H2       0.36807    0.01662    0.88667   1.00
H2       0.40808    0.19839    0.89501   1.00
H2       0.34380    0.12495    0.90695   1.00
H2       0.42519    0.13410    0.90347   1.00
H2       0.55025    0.15954    0.83293   1.00
H2       0.57384    0.11572    0.85042   1.00
H2       0.49575    0.07220    0.83766   1.00
H2       0.58949    0.18633    0.88000   1.00
H2       0.57882    0.24328    0.86423   1.00
H2       0.53140    0.21254    0.88692   1.00
C4       0.82911    0.18860    0.78414   1.00
C4       0.85559    0.16155    0.79886   1.00
C3       0.78144    0.14848    0.76892   1.00
C3       0.84188    0.09312    0.79871   1.00
C3       0.85201    0.25989    0.78429   1.00
C3       0.89807    0.20476    0.81474   1.00
C2       0.78059    0.24773    0.75427   1.00
C2       0.91232    0.11113    0.82893   1.00
C3       0.75812    0.17724    0.75433   1.00
C3       0.86893    0.06839    0.81343   1.00
C3       0.82689    0.28770    0.76967   1.00
C3       0.92716    0.17965    0.82892   1.00
H1       0.76209    0.09714    0.76804   1.00
H1       0.81220    0.05934    0.78783   1.00
C5       0.89962    0.30287    0.79910   1.00
C5       0.91184    0.27292    0.81631   1.00
H1       0.72403    0.14577    0.74360   1.00
H1       0.85680    0.01828    0.81267   1.00
H1       0.84232    0.33859    0.77031   1.00
H1       0.96093    0.21240    0.83940   1.00
O3       0.93007    0.37265    0.79718   1.00
O3       0.94112    0.31110    0.83359   1.00
Si1      1.00368    0.41525    0.78577   1.00
Si1      0.89204    0.30387    0.85267   1.00
C6       1.00703    0.49480    0.78515   1.00
C6       1.06600    0.41725    0.80224   1.00
C6       1.00382    0.38528    0.76106   1.00
C6       0.80376    0.24506    0.85062   1.00
C6       0.92638    0.27972    0.87275   1.00
C6       0.90562    0.38601    0.85795   1.00
C6       0.94068    0.49350    0.77765   1.00
H2       1.01139    0.50810    0.80121   1.00
C6       1.06743    0.55809    0.77442   1.00
H2       1.04194    0.41091    0.81704   1.00
C6       1.08364    0.35885    0.80063   1.00
C6       1.13650    0.48459    0.80380   1.00
H2       0.95738    0.38086    0.75456   1.00
C6       1.06340    0.43387    0.74660   1.00
C6       0.99858    0.31390    0.75817   1.00
C6       0.76398    0.25325    0.83247   1.00
C6       0.77744    0.16682    0.85256   1.00
H2       0.78344    0.25642    0.86415   1.00
H2       0.91329    0.22768    0.86893   1.00
C6       1.00594    0.32033    0.87478   1.00
C6       0.89713    0.27665    0.89445   1.00
H2       0.95245    0.40984    0.86691   1.00
C6       0.92087    0.43414    0.83938   1.00
C6       0.85095    0.39196    0.87096   1.00
H2       0.89623    0.45804    0.78654   1.00
H2       0.93027    0.47833    0.76173   1.00
H2       0.94511    0.54364    0.77919   1.00
H2       1.07853    0.60492    0.78237   1.00
H2       1.11419    0.55576    0.77407   1.00
H2       1.05525    0.56400    0.75878   1.00
H2       1.11115    0.35770    0.81412   1.00
H2       1.03813    0.30878    0.79957   1.00
H2       1.11600    0.36613    0.78751   1.00
H2       1.13034    0.52787    0.80793   1.00
H2       1.16844    0.48089    0.81561   1.00
H2       1.16453    0.49579    0.78952   1.00
H2       1.11299    0.45051    0.75359   1.00
H2       1.06198    0.40931    0.73216   1.00
H2       1.05978    0.47845    0.74254   1.00
H2       1.04849    0.31753    0.75859   1.00
H2       0.96726    0.27669    0.76950   1.00
H2       0.97594    0.29242    0.74341   1.00
H2       0.76892    0.22943    0.81871   1.00
H2       0.70954    0.22873    0.83594   1.00
H2       0.78111    0.30650    0.82914   1.00
H2       0.72183    0.13814    0.85385   1.00
H2       0.79071    0.14672    0.83943   1.00
H2       0.79707    0.15477    0.86609   1.00
H2       1.02293    0.29446    0.88529   1.00
H2       1.03068    0.32379    0.86024   1.00
H2       1.02466    0.37198    0.88043   1.00
H2       0.84152    0.24732    0.89462   1.00
H2       0.91497    0.25168    0.90503   1.00
H2       0.91355    0.32765    0.90034   1.00
H2       0.87835    0.41439    0.82873   1.00
H2       0.93261    0.48515    0.84406   1.00
H2       0.96515    0.43983    0.83128   1.00
H2       0.87001    0.44468    0.87576   1.00
H2       0.80403    0.37578    0.86238   1.00
H2       0.83816    0.36131    0.88472   1.00
C4       -0.02536   0.46932    0.38270   1.00
C4       0.02678    0.49704    0.36755   1.00
C3       -0.06937   0.39831    0.38572   1.00
C3       0.03603    0.45683    0.35274   1.00
C3       -0.03519   0.51468    0.39543   1.00
C3       0.07268    0.56889    0.36704   1.00
C2       -0.13177   0.41735    0.41300   1.00
C2       0.13248    0.55711    0.33712   1.00
C3       -0.12136   0.37300    0.40037   1.00
C3       0.08782    0.48593    0.33806   1.00
C3       -0.08711   0.48812    0.41038   1.00
C3       0.12265    0.59748    0.35159   1.00
H1       -0.06478   0.36289    0.37741   1.00
H1       0.00517    0.40527    0.35210   1.00
C5       0.00709    0.58627    0.39321   1.00
C5       0.06818    0.61193    0.38181   1.00
H1       -0.15195   0.32114    0.40177   1.00
H1       0.09246    0.45428    0.32784   1.00
H1       -0.09233   0.52123    0.41977   1.00
H1       0.15226    0.64935    0.35064   1.00
O3       -0.00960   0.62960    0.40307   1.00
O3       0.11970    0.67883    0.38409   1.00
Si1      -0.05495   0.65700    0.39142   1.00
Si1      0.18515    0.69504    0.39828   1.00
C6       -0.06811   0.69700    0.41253   1.00
C6       -0.00182   0.71739    0.37325   1.00
C6       -0.13296   0.59065    0.38190   1.00
C6       0.18835    0.62562    0.40938   1.00
C6       0.25452    0.73851    0.38172   1.00
C6       0.19106    0.75275    0.41718   1.00
C6       -0.09145   0.65398    0.43257   1.00
H2       -0.01665   0.73883    0.41560   1.00
C6       -0.11382   0.73085    0.41082   1.00
H2       0.04875    0.73525    0.37967   1.00
C6       0.00052    0.69183    0.35137   1.00
C6       -0.00744   0.78291    0.37006   1.00
H2       -0.15297   0.55617    0.39489   1.00
C6       -0.18901   0.60903    0.37618   1.00
C6       -0.13257   0.54669    0.36350   1.00
C6       0.12773    0.57594    0.42328   1.00
C6       0.20617    0.57973    0.39587   1.00
H2       0.23217    0.65123    0.41951   1.00
H2       0.24931    0.69917    0.37113   1.00
C6       0.25397    0.79524    0.36827   1.00
C6       0.32770    0.77027    0.39099   1.00
H2       0.21654    0.80223    0.40960   1.00
C6       0.12234    0.74446    0.42500   1.00
C6       0.23462    0.76070    0.43652   1.00
H2       -0.05607   0.63670    0.43697   1.00
H2       -0.14206   0.60906    0.43087   1.00
H2       -0.09337   0.68414    0.44523   1.00
H2       -0.09411   0.77537    0.42077   1.00
H2       -0.11563   0.74785    0.39553   1.00
H2       -0.16634   0.69641    0.41556   1.00
H2       0.04495    0.73041    0.34307   1.00
H2       0.00491    0.64613    0.35159   1.00
H2       -0.04477   0.68128    0.34270   1.00
H2       0.00042    0.81073    0.38424   1.00
H2       0.03166    0.81849    0.35958   1.00
H2       -0.05706   0.77016    0.36378   1.00
H2       -0.16911   0.65195    0.36563   1.00
H2       -0.23356   0.56613    0.36911   1.00
H2       -0.20859   0.62152    0.38955   1.00
H2       -0.13273   0.56953    0.34894   1.00
H2       -0.08911   0.53890    0.36343   1.00
H2       -0.17818   0.49609    0.36392   1.00
H2       0.08520    0.53739    0.41446   1.00
H2       0.14381    0.54887    0.43361   1.00
H2       0.10894    0.60268    0.43262   1.00
H2       0.21562    0.54557    0.40531   1.00
H2       0.16504    0.54772    0.38553   1.00
H2       0.25240    0.60973    0.38699   1.00
H2       0.29213    0.81096    0.35622   1.00
H2       0.20464    0.77675    0.36085   1.00
H2       0.26519    0.84046    0.37708   1.00
H2       0.33349    0.73345    0.40020   1.00
H2       0.36594    0.78692    0.37893   1.00
H2       0.33986    0.81474    0.40035   1.00
H2       0.09060    0.69527    0.43230   1.00
H2       0.13059    0.78454    0.43577   1.00
H2       0.09369    0.74836    0.41238   1.00
H2       0.24290    0.80485    0.44548   1.00
H2       0.20933    0.71579    0.44628   1.00
H2       0.28488    0.76875    0.43259   1.00
C4       0.49477    1.02561    0.38262   1.00
C4       0.47039    0.97344    0.36748   1.00
C3       0.47063    1.07231    0.38481   1.00
C3       0.42411    0.96670    0.35190   1.00
C3       0.54695    1.03263    0.39622   1.00
C3       0.49304    0.92486    0.36779   1.00
C2       0.54908    1.13184    0.41298   1.00
C2       0.42469    0.86745    0.33714   1.00
C3       0.49727    1.12421    0.39949   1.00
C3       0.40137    0.91479    0.33726   1.00
C3       0.57225    1.08452    0.41117   1.00
C3       0.47178    0.87474    0.35239   1.00
H1       0.43281    1.06983    0.37585   1.00
H1       0.40588    0.99954    0.35065   1.00
C5       0.57331    0.98758    0.39485   1.00
C5       0.53720    0.92683    0.38335   1.00
H1       0.47816    1.15680    0.40027   1.00
H1       0.36743    0.91205    0.32645   1.00
H1       0.60833    1.08775    0.42119   1.00
H1       0.49183    0.84310    0.35207   1.00
O3       0.63098    1.00136    0.40561   1.00
O3       0.54886    0.87307    0.38630   1.00
Si1      0.70582    1.04386    0.39489   1.00
Si1      0.49531    0.80862    0.40014   1.00
C6       0.75496    1.05440    0.41680   1.00
C6       0.71254    0.98889    0.37730   1.00
C6       0.72293    1.12330    0.38496   1.00
C6       0.42307    0.80940    0.40998   1.00
C6       0.46875    0.73884    0.38370   1.00
C6       0.54240    0.79966    0.41997   1.00
C6       0.73423    1.07948    0.43628   1.00
H2       0.74226    1.00210    0.42012   1.00
C6       0.83494    1.09689    0.41612   1.00
H2       0.67702    0.93880    0.38354   1.00
C6       0.68861    0.98804    0.35498   1.00
C6       0.78230    0.99068    0.37532   1.00
H2       0.70811    1.14466    0.39752   1.00
C6       0.79912    1.17669    0.38010   1.00
C6       0.68264    1.12537    0.36581   1.00
C6       0.43505    0.87104    0.42356   1.00
C6       0.36230    0.79465    0.39552   1.00
H2       0.40144    0.76543    0.42013   1.00
H2       0.43751    0.74609    0.37249   1.00
C6       0.52631    0.73620    0.37127   1.00
C6       0.42308    0.66602    0.39283   1.00
H2       0.56536    0.77216    0.41302   1.00
C6       0.60372    0.86685    0.42828   1.00
C6       0.50254    0.75693    0.43901   1.00
H2       0.68052    1.04609    0.44004   1.00
H2       0.74286    1.13112    0.43427   1.00
H2       0.76356    1.07965    0.44948   1.00
H2       0.85641    1.07527    0.42664   1.00
H2       0.85554    1.09769    0.40117   1.00
H2       0.85474    1.14981    0.42075   1.00
H2       0.68165    0.94275    0.34694   1.00
H2       0.63976    0.98634    0.35435   1.00
H2       0.72614    1.03261    0.34656   1.00
H2       0.79912    0.98151    0.38989   1.00
H2       0.77825    0.95074    0.36510   1.00
H2       0.82179    1.03957    0.36929   1.00
H2       0.82187    1.15497    0.37013   1.00
H2       0.80428    1.22234    0.37272   1.00
H2       0.82934    1.19501    0.39386   1.00
H2       0.70711    1.12424    0.35167   1.00
H2       0.63051    1.08362    0.36519   1.00
H2       0.68031    1.17248    0.36578   1.00
H2       0.44262    0.91448    0.41449   1.00
H2       0.39077    0.85694    0.43325   1.00
H2       0.47887    0.88779    0.43354   1.00
H2       0.31809    0.78740    0.40426   1.00
H2       0.37500    0.83637    0.38501   1.00
H2       0.34527    0.74809    0.38674   1.00
H2       0.50418    0.69827    0.35915   1.00
H2       0.56009    0.78512    0.36400   1.00
H2       0.55733    0.72278    0.38075   1.00
H2       0.38006    0.66246    0.40132   1.00
H2       0.40177    0.62796    0.38071   1.00
H2       0.45232    0.65172    0.40283   1.00
H2       0.58750    0.90042    0.43501   1.00
H2       0.63252    0.85660    0.43966   1.00
H2       0.63876    0.89444    0.41601   1.00
H2       0.53552    0.74643    0.44865   1.00
H2       0.48351    0.78400    0.44821   1.00
H2       0.45936    0.70768    0.43475   1.00
C4       0.53084    0.50523    0.38262   1.00
C4       0.50305    0.52961    0.36748   1.00
C3       0.60170    0.52948    0.38484   1.00
C3       0.54262    0.57601    0.35193   1.00
C3       0.48567    0.45294    0.39619   1.00
C3       0.43180    0.50685    0.36777   1.00
C2       0.58277    0.45092    0.41298   1.00
C2       0.44277    0.57531    0.33714   1.00
C3       0.62696    0.50284    0.39952   1.00
C3       0.51346    0.59875    0.33728   1.00
C3       0.51227    0.42764    0.41115   1.00
C3       0.40295    0.52811    0.35236   1.00
H1       0.63704    0.56737    0.37591   1.00
H1       0.59372    0.59432    0.35070   1.00
C5       0.41425    0.42648    0.39480   1.00
C5       0.38957    0.46257    0.38329   1.00
H1       0.67867    0.52202    0.40032   1.00
H1       0.54467    0.63277    0.32650   1.00
H1       0.47940    0.39148    0.42114   1.00
H1       0.35125    0.50798    0.35202   1.00
O3       0.37037    0.36872    0.40553   1.00
O3       0.32410    0.45077    0.38623   1.00
Si1      0.33821    0.29395    0.39477   1.00
Si1      0.31301    0.50417    0.40008   1.00
C6       0.29955    0.24466    0.41665   1.00
C6       0.27655    0.28720    0.37715   1.00
C6       0.40068    0.27703    0.38485   1.00
C6       0.38591    0.57643    0.40996   1.00
C6       0.26979    0.53072    0.38364   1.00
C6       0.25691    0.45692    0.41987   1.00
C6       0.34526    0.26536    0.43615   1.00
H2       0.25987    0.25726    0.41996   1.00
C6       0.26218    0.16469    0.41593   1.00
H2       0.26187    0.32263    0.38341   1.00
C6       0.29973    0.31128    0.35486   1.00
C6       0.20867    0.21739    0.37513   1.00
H2       0.43680    0.29184    0.39743   1.00
C6       0.37803    0.20089    0.37996   1.00
C6       0.44311    0.31746    0.36573   1.00
C6       0.43557    0.56449    0.42355   1.00
C6       0.43193    0.63731    0.39553   1.00
H2       0.36345    0.59794    0.42011   1.00
H2       0.30831    0.56205    0.37244   1.00
C6       0.20970    0.47315    0.37117   1.00
C6       0.24247    0.57624    0.39277   1.00
H2       0.20647    0.43392    0.41290   1.00
C6       0.26285    0.39563    0.42817   1.00
C6       0.25385    0.49663    0.43893   1.00
H2       0.36548    0.31904    0.43993   1.00
H2       0.38834    0.25683    0.43415   1.00
H2       0.31607    0.23593    0.44933   1.00
H2       0.21904    0.14310    0.42644   1.00
H2       0.24248    0.14415    0.40097   1.00
H2       0.29535    0.14496    0.42057   1.00
H2       0.26139    0.31820    0.34680   1.00
H2       0.34683    0.36017    0.35426   1.00
H2       0.30689    0.27384    0.34642   1.00
H2       0.18261    0.20046    0.38970   1.00
H2       0.17279    0.22143    0.36491   1.00
H2       0.21818    0.17799    0.36909   1.00
H2       0.33361    0.17813    0.36997   1.00
H2       0.41861    0.19586    0.37259   1.00
H2       0.36611    0.17061    0.39371   1.00
H2       0.41760    0.29304    0.35157   1.00
H2       0.45339    0.36957    0.36513   1.00
H2       0.49258    0.31989    0.36571   1.00
H2       0.47154    0.55705    0.41449   1.00
H2       0.46565    0.60874    0.43327   1.00
H2       0.40851    0.52061    0.43351   1.00
H2       0.46880    0.68150    0.40430   1.00
H2       0.46107    0.62474    0.38503   1.00
H2       0.40239    0.65432    0.38675   1.00
H2       0.19390    0.49530    0.35905   1.00
H2       0.22496    0.43948    0.36389   1.00
H2       0.16522    0.44202    0.38063   1.00
H2       0.28184    0.61924    0.40129   1.00
H2       0.22572    0.59755    0.38065   1.00
H2       0.19889    0.54688    0.40275   1.00
H2       0.31262    0.41189    0.43492   1.00
H2       0.22377    0.36672    0.43953   1.00
H2       0.25552    0.36067    0.41589   1.00
H2       0.21034    0.46355    0.44855   1.00
H2       0.29992    0.51569    0.44815   1.00
H2       0.24771    0.53978    0.43468   1.00
C4       0.19060    0.35580    0.21699   1.00
C4       0.16281    0.30364    0.20185   1.00
C3       0.15538    0.35423    0.23498   1.00
C3       0.09488    0.24798    0.20228   1.00
C3       0.25685    0.41353    0.21399   1.00
C3       0.20482    0.30659    0.18529   1.00
C2       0.24891    0.46495    0.24640   1.00
C2       0.10995    0.20102    0.17040   1.00
C3       0.18353    0.40745    0.24923   1.00
C3       0.06933    0.19772    0.18710   1.00
C3       0.28487    0.46607    0.22873   1.00
C3       0.17721    0.25704    0.16970   1.00
H1       0.10834    0.31427    0.23830   1.00
H1       0.06182    0.24254    0.21357   1.00
C5       0.29480    0.41825    0.19633   1.00
C5       0.27393    0.35921    0.18426   1.00
H1       0.15547    0.40375    0.26189   1.00
H1       0.01999    0.15832    0.18830   1.00
H1       0.33321    0.50625    0.22664   1.00
H1       0.20658    0.26229    0.15730   1.00
O3       0.35326    0.47861    0.19184   1.00
O3       0.31882    0.35566    0.17078   1.00
Si1      0.34930    0.53403    0.17689   1.00
Si1      0.35685    0.31348    0.17732   1.00
C6       0.43399    0.60069    0.18042   1.00
C6       0.33645    0.50129    0.15201   1.00
C6       0.29011    0.55816    0.18506   1.00
C6       0.33640    0.27172    0.20109   1.00
C6       0.33382    0.25289    0.15788   1.00
C6       0.44530    0.37029    0.17562   1.00
C6       0.45926    0.61642    0.20296   1.00
H2       0.46337    0.57978    0.17346   1.00
C6       0.46032    0.67222    0.17023   1.00
H2       0.35782    0.46756    0.15290   1.00
C6       0.26157    0.45586    0.14430   1.00
C6       0.37502    0.55157    0.13416   1.00
H2       0.30263    0.56876    0.20115   1.00
C6       0.29681    0.62498    0.17580   1.00
C6       0.21162    0.50524    0.18392   1.00
C6       0.34684    0.31551    0.22052   1.00
C6       0.26654    0.20423    0.20390   1.00
H2       0.37384    0.25496    0.20233   1.00
H2       0.27962    0.21796    0.16047   1.00
C6       0.33888    0.27995    0.13572   1.00
C6       0.36884    0.20836    0.15774   1.00
H2       0.45647    0.37083    0.15949   1.00
C6       0.47028    0.44617    0.18108   1.00
C6       0.49423    0.35113    0.18694   1.00
H2       0.45310    0.57097    0.21067   1.00
H2       0.43114    0.63568    0.21156   1.00
H2       0.51348    0.65453    0.20373   1.00
H2       0.51425    0.69475    0.16630   1.00
H2       0.43296    0.66958    0.15640   1.00
H2       0.45652    0.70833    0.18036   1.00
H2       0.26030    0.42743    0.13073   1.00
H2       0.22940    0.41805    0.15548   1.00
H2       0.23868    0.48680    0.14033   1.00
H2       0.43001    0.57925    0.13667   1.00
H2       0.36683    0.52423    0.11981   1.00
H2       0.35744    0.58818    0.13215   1.00
H2       0.29656    0.62338    0.15925   1.00
H2       0.25529    0.63331    0.18064   1.00
H2       0.34319    0.66982    0.18088   1.00
H2       0.18998    0.50591    0.16919   1.00
H2       0.19930    0.45315    0.18668   1.00
H2       0.18423    0.51738    0.19533   1.00
H2       0.30354    0.32292    0.22324   1.00
H2       0.35212    0.29008    0.23392   1.00
H2       0.39264    0.36543    0.21963   1.00
H2       0.26556    0.17972    0.21829   1.00
H2       0.22363    0.21322    0.20411   1.00
H2       0.25749    0.16699    0.19206   1.00
H2       0.31285    0.23737    0.12512   1.00
H2       0.31428    0.31079    0.13437   1.00
H2       0.39166    0.31078    0.13072   1.00
H2       0.36596    0.18553    0.17254   1.00
H2       0.34343    0.16636    0.14691   1.00
H2       0.42236    0.23824    0.15328   1.00
H2       0.45955    0.45220    0.19683   1.00
H2       0.52498    0.47860    0.17850   1.00
H2       0.44475    0.46554    0.17151   1.00
H2       0.54711    0.38449    0.18223   1.00
H2       0.49189    0.35616    0.20336   1.00
H2       0.48199    0.29908    0.18360   1.00
C4       0.63694    0.83217    0.21471   1.00
C4       0.69047    0.85865    0.19998   1.00
C3       0.57448    0.83172    0.21210   1.00
C3       0.68947    0.89286    0.18204   1.00
C3       0.64626    0.80546    0.23329   1.00
C3       0.74844    0.85066    0.20316   1.00
C2       0.53260    0.78080    0.24565   1.00
C2       0.80143    0.91211    0.17115   1.00
C3       0.52388    0.80711    0.22717   1.00
C3       0.74310    0.91830    0.16792   1.00
C3       0.59407    0.77970    0.24815   1.00
C3       0.80325    0.87923    0.18918   1.00
H1       0.56382    0.84903    0.19913   1.00
H1       0.64995    0.90068    0.17876   1.00
C5       0.70751    0.80438    0.23686   1.00
C5       0.75179    0.81479    0.22033   1.00
H1       0.47996    0.80854    0.22449   1.00
H1       0.73933    0.94207    0.15514   1.00
H1       0.60068    0.75896    0.26116   1.00
H1       0.84625    0.87690    0.19233   1.00
O3       0.72107    0.78935    0.25595   1.00
O3       0.80020    0.79479    0.22166   1.00
Si1      0.76604    0.85097    0.27188   1.00
Si1      0.78447    0.72326    0.21106   1.00
C6       0.75386    0.79927    0.29329   1.00
C6       0.85144    0.89172    0.26356   1.00
C6       0.73266    0.90570    0.27599   1.00
C6       0.70715    0.67611    0.19757   1.00
C6       0.85345    0.74858    0.19438   1.00
C6       0.79096    0.67232    0.23013   1.00
C6       0.67859    0.74170    0.29748   1.00
H2       0.78095    0.77265    0.28893   1.00
C6       0.78345    0.83173    0.31457   1.00
H2       0.85282    0.85125    0.25496   1.00
C6       0.87640    0.95327    0.24860   1.00
C6       0.90937    0.91512    0.27978   1.00
H2       0.67864    0.86957    0.27859   1.00
C6       0.75824    0.95272    0.29519   1.00
C6       0.73600    0.95445    0.25849   1.00
C6       0.63889    0.65378    0.20914   1.00
C6       0.69912    0.70134    0.17617   1.00
H2       0.70691    0.62877    0.19425   1.00
H2       0.84429    0.77684    0.18258   1.00
C6       0.92566    0.79954    0.20315   1.00
C6       0.86013    0.69107    0.18335   1.00
H2       0.84569    0.69185    0.23149   1.00
C6       0.76760    0.67937    0.25180   1.00
C6       0.75790    0.59395    0.22608   1.00
H2       0.65636    0.70865    0.28429   1.00
H2       0.64626    0.76320    0.30135   1.00
H2       0.67619    0.70890    0.30999   1.00
H2       0.79816    0.79948    0.32299   1.00
H2       0.82823    0.88222    0.31351   1.00
H2       0.74606    0.83616    0.32394   1.00
H2       0.92428    0.96426    0.24134   1.00
H2       0.84013    0.94287    0.23639   1.00
H2       0.88547    0.99940    0.25652   1.00
H2       0.90213    0.87269    0.28935   1.00
H2       0.95932    0.93478    0.27261   1.00
H2       0.91174    0.95559    0.28937   1.00
H2       0.81385    0.98283    0.29555   1.00
H2       0.73859    0.98810    0.29573   1.00
H2       0.74031    0.92309    0.30907   1.00
H2       0.78391    1.00295    0.25860   1.00
H2       0.73052    0.93289    0.24348   1.00
H2       0.69490    0.96614    0.26029   1.00
H2       0.62627    0.69430    0.20946   1.00
H2       0.59655    0.61002    0.20163   1.00
H2       0.64045    0.63853    0.22469   1.00
H2       0.65298    0.66225    0.16864   1.00
H2       0.69481    0.74700    0.17707   1.00
H2       0.74146    0.71179    0.16610   1.00
H2       0.96322    0.82110    0.19091   1.00
H2       0.92586    0.84239    0.21085   1.00
H2       0.94317    0.77489    0.21388   1.00
H2       0.81233    0.65396    0.17619   1.00
H2       0.89844    0.71277    0.17131   1.00
H2       0.87593    0.66418    0.19381   1.00
H2       0.71360    0.66371    0.25231   1.00
H2       0.77700    0.64926    0.26293   1.00
H2       0.79631    0.73215    0.25670   1.00
H2       0.77421    0.57003    0.23749   1.00
H2       0.70226    0.56843    0.22658   1.00
H2       0.77286    0.58364    0.21137   1.00
C4       0.16677    0.80387    0.21475   1.00
C4       0.14043    0.83116    0.20005   1.00
C3       0.15563    0.73638    0.21398   1.00
C3       0.09527    0.79190    0.18422   1.00
C3       0.20565    0.84560    0.23137   1.00
C3       0.16006    0.90160    0.20105   1.00
C2       0.21893    0.75139    0.24560   1.00
C2       0.08816    0.88975    0.17120   1.00
C3       0.18063    0.71069    0.22903   1.00
C3       0.07034    0.82050    0.17007   1.00
C3       0.23151    0.81915    0.24620   1.00
C3       0.13207    0.92872    0.18718   1.00
H1       0.12921    0.70398    0.20243   1.00
H1       0.07883    0.74129    0.18256   1.00
C5       0.21868    0.91357    0.23304   1.00
C5       0.20699    0.94451    0.21597   1.00
H1       0.17054    0.66132    0.22776   1.00
H1       0.03831    0.78980    0.15883   1.00
H1       0.26090    0.85028    0.25773   1.00
H1       0.14320    0.97812    0.18889   1.00
O3       0.24610    0.94966    0.25068   1.00
O3       0.23691    1.01464    0.21478   1.00
Si1      0.19579    0.94972    0.26842   1.00
Si1      0.30518    1.05696    0.20091   1.00
C6       0.25901    0.99195    0.28713   1.00
C6       0.16267    1.00114    0.25988   1.00
C6       0.13410    0.86706    0.27641   1.00
C6       0.33592    1.01050    0.18733   1.00
C6       0.28168    1.10096    0.18377   1.00
C6       0.36955    1.11746    0.21681   1.00
C6       0.30968    0.96456    0.29036   1.00
H2       0.28967    1.04274    0.28058   1.00
C6       0.23970    1.00384    0.30902   1.00
H2       0.20174    1.03494    0.24917   1.00
C6       0.09422    0.96657    0.24769   1.00
C6       0.15525    1.04920    0.27546   1.00
H2       0.16477    0.84262    0.27862   1.00
C6       0.09767    0.86082    0.29716   1.00
C6       0.07444    0.81970    0.26167   1.00
C6       0.35388    0.96239    0.19955   1.00
C6       0.29746    0.97023    0.16779   1.00
H2       0.38456    1.05097    0.18149   1.00
H2       0.24445    1.06093    0.17392   1.00
C6       0.24376    1.13654    0.19306   1.00
C6       0.33856    1.15456    0.16957   1.00
H2       0.35855    1.15916    0.21758   1.00
C6       0.36863    1.09554    0.23927   1.00
C6       0.44535    1.15017    0.20954   1.00
H2       0.33474    0.96455    0.27621   1.00
H2       0.28335    0.91253    0.29631   1.00
H2       0.35016    0.99659    0.30102   1.00
H2       0.28046    1.05190    0.31516   1.00
H2       0.19299    1.00627    0.30938   1.00
H2       0.23331    0.96396    0.31961   1.00
H2       0.08700    1.00484    0.23971   1.00
H2       0.09336    0.93180    0.23615   1.00
H2       0.05055    0.93859    0.25774   1.00
H2       0.20373    1.08336    0.28283   1.00
H2       0.13920    1.08199    0.26797   1.00
H2       0.11728    1.01982    0.28704   1.00
H2       0.07509    0.89360    0.29750   1.00
H2       0.05708    0.80853    0.30018   1.00
H2       0.13285    0.87400    0.30980   1.00
H2       0.03093    0.82777    0.26298   1.00
H2       0.08919    0.82658    0.24584   1.00
H2       0.05606    0.76613    0.26528   1.00
H2       0.30890    0.91295    0.20243   1.00
H2       0.38971    0.95286    0.19102   1.00
H2       0.37784    0.98433    0.21404   1.00
H2       0.32769    0.95247    0.15960   1.00
H2       0.24868    0.92535    0.17127   1.00
H2       0.28854    1.00185    0.15716   1.00
H2       0.22121    1.15223    0.18103   1.00
H2       0.20200    1.10192    0.20297   1.00
H2       0.27803    1.18182    0.20181   1.00
H2       0.36659    1.13343    0.16191   1.00
H2       0.31606    1.17101    0.15773   1.00
H2       0.37479    1.19991    0.17799   1.00
H2       0.37655    1.05198    0.24051   1.00
H2       0.40754    1.13719    0.24835   1.00
H2       0.31969    1.08133    0.24611   1.00
H2       0.47897    1.19381    0.21904   1.00
H2       0.46347    1.11364    0.21030   1.00
H2       0.45169    1.16900    0.19402   1.00
C4       1.02277    0.52291    0.61643   1.00
C4       0.97071    0.49544    0.63161   1.00
C3       1.02979    0.48294    0.60106   1.00
C3       0.92445    0.42459    0.63406   1.00
C3       1.07144    0.59412    0.61668   1.00
C3       0.96387    0.54082    0.64517   1.00
C2       1.13147    0.58174    0.58689   1.00
C2       0.86782    0.44380    0.66299   1.00
C3       1.08285    0.51142    0.58676   1.00
C3       0.87400    0.39948    0.64919   1.00
C3       1.12383    0.62209    0.60189   1.00
C3       0.91460    0.51430    0.66085   1.00
H1       0.99643    0.43200    0.59976   1.00
H1       0.92631    0.38911    0.62501   1.00
C5       1.06730    0.63696    0.63164   1.00
C5       1.00655    0.61232    0.64315   1.00
H1       1.08565    0.47990    0.57609   1.00
H1       0.84158    0.34778    0.65013   1.00
H1       1.15724    0.67355    0.60191   1.00
H1       0.91322    0.54715    0.67123   1.00
O3       1.12037    0.70282    0.63393   1.00
O3       0.99225    0.65713    0.65330   1.00
Si1      1.18038    0.71939    0.65047   1.00
Si1      0.93886    0.67712    0.64314   1.00
C6       1.23539    0.80500    0.64334   1.00
C6       1.14560    0.71410    0.67478   1.00
C6       1.21967    0.66959    0.64707   1.00
C6       0.89949    0.63798    0.61996   1.00
C6       0.87632    0.65412    0.66198   1.00
C6       0.98198    0.76653    0.64061   1.00
C6       1.24888    0.81844    0.62001   1.00
H2       1.20596    0.82927    0.64763   1.00
C6       1.30694    0.84868    0.65368   1.00
H2       1.10448    0.72458    0.67151   1.00
C6       1.11131    0.64377    0.68598   1.00
C6       1.19088    0.76760    0.69121   1.00
H2       1.22977    0.67430    0.63076   1.00
C6       1.29028    0.69486    0.65765   1.00
C6       1.17848    0.59108    0.65183   1.00
C6       0.94639    0.64648    0.60148   1.00
C6       0.84094    0.56164    0.61986   1.00
H2       0.87348    0.66582    0.61578   1.00
H2       0.84989    0.59851    0.66200   1.00
C6       0.90305    0.67596    0.68417   1.00
C6       0.82051    0.67449    0.65851   1.00
H2       0.97902    0.78464    0.65572   1.00
C6       1.05970    0.80184    0.63581   1.00
C6       0.95171    0.79846    0.62572   1.00
H2       1.20131    0.79914    0.61154   1.00
H2       1.27639    0.79404    0.61400   1.00
H2       1.27903    0.87302    0.61678   1.00
H2       1.31984    0.90203    0.65463   1.00
H2       1.30878    0.83178    0.66898   1.00
H2       1.34778    0.84808    0.64504   1.00
H2       1.07964    0.64348    0.69855   1.00
H2       1.07777    0.60198    0.67603   1.00
H2       1.14949    0.63297    0.69228   1.00
H2       1.20964    0.81965    0.68592   1.00
H2       1.16179    0.76202    0.70503   1.00
H2       1.23425    0.76159    0.69541   1.00
H2       1.28736    0.70292    0.67386   1.00
H2       1.30841    0.65850    0.65589   1.00
H2       1.32971    0.74194    0.65090   1.00
H2       1.18266    0.58030    0.66774   1.00
H2       1.12460    0.56759    0.64842   1.00
H2       1.19829    0.56428    0.64280   1.00
H2       0.96375    0.60948    0.60188   1.00
H2       0.91861    0.63844    0.58724   1.00
H2       0.99102    0.69729    0.60077   1.00
H2       0.81554    0.54791    0.60509   1.00
H2       0.85973    0.52663    0.62275   1.00
H2       0.80143    0.55183    0.63099   1.00
H2       0.86139    0.64974    0.69506   1.00
H2       0.94166    0.66231    0.68802   1.00
H2       0.92514    0.73071    0.68649   1.00
H2       0.79738    0.65928    0.64351   1.00
H2       0.77934    0.64905    0.66959   1.00
H2       0.84146    0.72938    0.66021   1.00
H2       1.06969    0.78575    0.62124   1.00
H2       1.08331    0.85734    0.63567   1.00
H2       1.08542    0.78915    0.64745   1.00
H2       0.97655    0.85370    0.62781   1.00
H2       0.95889    0.78901    0.60990   1.00
H2       0.89739    0.77823    0.62829   1.00
C4       0.50048    -0.02266   0.61640   1.00
C4       0.52501    0.02942    0.63158   1.00
C3       0.45680    -0.02726   0.60028   1.00
C3       0.50342    0.07829    0.63322   1.00
C3       0.51954    -0.07390   0.61743   1.00
C3       0.57401    0.03352    0.64597   1.00
C2       0.45037    -0.13150   0.58690   1.00
C2       0.57586    0.13221    0.66298   1.00
C3       0.43209    -0.08036   0.58600   1.00
C3       0.52860    0.12868    0.64836   1.00
C3       0.49510    -0.12633   0.60266   1.00
C3       0.59653    0.08285    0.66164   1.00
H1       0.44183    0.00798    0.59841   1.00
H1       0.46845    0.07847    0.62354   1.00
C5       0.56312    -0.07227   0.63316   1.00
C5       0.59985    -0.01191   0.64480   1.00
H1       0.40025    -0.08132   0.57477   1.00
H1       0.51160    0.16305    0.64871   1.00
H1       0.51072    -0.16165   0.60326   1.00
H1       0.62825    0.08235    0.67259   1.00
O3       0.57217    -0.12747   0.63610   1.00
O3       0.65646    -0.00053   0.65586   1.00
Si1      0.52421    -0.18666   0.65235   1.00
Si1      0.73213    0.05019    0.64657   1.00
C6       0.55183    -0.24486   0.64620   1.00
C6       0.55116    -0.15259   0.67686   1.00
C6       0.43611    -0.22203   0.64770   1.00
C6       0.73803    0.09059    0.62310   1.00
C6       0.77121    0.11220    0.66557   1.00
C6       0.77496    0.00333    0.64520   1.00
C6       0.55449    -0.25871   0.62301   1.00
H2       0.60493    -0.21763   0.65118   1.00
C6       0.51923    -0.31676   0.65662   1.00
H2       0.60400    -0.11325   0.67417   1.00
C6       0.51650    -0.11537   0.68714   1.00
C6       0.55414    -0.19954   0.69377   1.00
H2       0.43274    -0.23210   0.63140   1.00
C6       0.38660    -0.29199   0.65804   1.00
C6       0.40156    -0.17764   0.65148   1.00
C6       0.70088    0.04458    0.60435   1.00
C6       0.72410    0.15171    0.62223   1.00
H2       0.79232    0.11428    0.61966   1.00
H2       0.74441    0.14097    0.66487   1.00
C6       0.76166    0.08503    0.68787   1.00
C6       0.84874    0.16524    0.66299   1.00
H2       0.79330    0.00519    0.66063   1.00
C6       0.73015    -0.07411   0.64028   1.00
C6       0.83919    0.03093    0.63117   1.00
H2       0.58585    -0.21144   0.61466   1.00
H2       0.50350    -0.28405   0.61632   1.00
H2       0.57695    -0.29103   0.62045   1.00
H2       0.55758    -0.33227   0.65837   1.00
H2       0.49869    -0.31760   0.67158   1.00
H2       0.47803    -0.35638   0.64758   1.00
H2       0.54685    -0.08460   0.69998   1.00
H2       0.51187    -0.08047   0.67678   1.00
H2       0.46591    -0.15183   0.69288   1.00
H2       0.58614    -0.22067   0.68922   1.00
H2       0.57653    -0.17098   0.70775   1.00
H2       0.50319    -0.24131   0.69745   1.00
H2       0.39500    -0.28960   0.67440   1.00
H2       0.33300    -0.30756   0.65548   1.00
H2       0.39279    -0.33290   0.65175   1.00
H2       0.38446    -0.18109   0.66714   1.00
H2       0.43457    -0.12402   0.64817   1.00
H2       0.35658    -0.19538   0.64180   1.00
H2       0.64714    0.02980    0.60394   1.00
H2       0.72371    0.07200    0.59025   1.00
H2       0.70445    -0.00159   0.60411   1.00
H2       0.73904    0.17713    0.60747   1.00
H2       0.67044    0.13542    0.62432   1.00
H2       0.75347    0.19062    0.63354   1.00
H2       0.77737    0.12694    0.69867   1.00
H2       0.70824    0.04830    0.69110   1.00
H2       0.79174    0.06052    0.69093   1.00
H2       0.85995    0.18854    0.64796   1.00
H2       0.86467    0.20664    0.67400   1.00
H2       0.88022    0.14184    0.66546   1.00
H2       0.70647    -0.08291   0.62536   1.00
H2       0.75976    -0.10013   0.64090   1.00
H2       0.68973    -0.09837   0.65144   1.00
H2       0.86694    0.00373    0.63399   1.00
H2       0.82500    0.02448    0.61514   1.00
H2       0.87493    0.08480    0.63390   1.00
C4       0.47685    0.49953    0.61641   1.00
C4       0.50440    0.47500    0.63158   1.00
C3       0.51598    0.54333    0.60031   1.00
C3       0.57489    0.49670    0.63325   1.00
C3       0.40652    0.48035    0.61741   1.00
C3       0.45949    0.42588    0.64595   1.00
C2       0.41813    0.54964    0.58690   1.00
C2       0.55633    0.42413    0.66298   1.00
C3       0.48758    0.56803    0.58603   1.00
C3       0.60009    0.47151    0.64839   1.00
C3       0.37853    0.50479    0.60263   1.00
C3       0.48628    0.40336    0.66161   1.00
H1       0.56621    0.55839    0.59845   1.00
H1       0.61005    0.53175    0.62359   1.00
C5       0.36454    0.43665    0.63311   1.00
C5       0.38820    0.39994    0.64474   1.00
H1       0.51849    0.59997    0.57481   1.00
H1       0.65147    0.48860    0.64876   1.00
H1       0.32758    0.48908    0.60321   1.00
H1       0.45404    0.37154    0.67254   1.00
O3       0.30022    0.42746    0.63603   1.00
O3       0.34298    0.34324    0.65577   1.00
Si1      0.28880    0.47526    0.65228   1.00
Si1      0.31820    0.26764    0.64645   1.00
C6       0.20299    0.44754    0.64611   1.00
C6       0.29586    0.44823    0.67679   1.00
C6       0.34144    0.56341    0.64768   1.00
C6       0.35288    0.26194    0.62299   1.00
C6       0.34113    0.22854    0.66545   1.00
C6       0.22852    0.22469    0.64504   1.00
C6       0.18659    0.44498    0.62291   1.00
H2       0.17716    0.39441    0.65106   1.00
C6       0.16353    0.47997    0.65652   1.00
H2       0.28246    0.39543    0.67408   1.00
C6       0.36770    0.48294    0.68710   1.00
C6       0.24581    0.44507    0.69369   1.00
H2       0.33481    0.56685    0.63138   1.00
C6       0.32082    0.61278    0.65803   1.00
C6       0.42037    0.59807    0.65149   1.00
C6       0.34402    0.29913    0.60425   1.00
C6       0.42797    0.27601    0.62214   1.00
H2       0.32236    0.20766    0.61952   1.00
H2       0.39671    0.25543    0.66477   1.00
C6       0.32336    0.23793    0.68774   1.00
C6       0.31679    0.15105    0.66283   1.00
H2       0.21197    0.20624    0.66046   1.00
C6       0.19579    0.26941    0.64013   1.00
C6       0.19205    0.16052    0.63098   1.00
H2       0.20262    0.41372    0.61455   1.00
H2       0.21220    0.49600    0.61624   1.00
H2       0.13181    0.42244    0.62032   1.00
H2       0.10969    0.44155    0.65825   1.00
H2       0.18314    0.50045    0.67149   1.00
H2       0.16508    0.52119    0.64750   1.00
H2       0.36811    0.45255    0.69994   1.00
H2       0.40730    0.48770    0.67676   1.00
H2       0.38171    0.53348    0.69286   1.00
H2       0.19271    0.41302    0.68911   1.00
H2       0.25196    0.42264    0.70766   1.00
H2       0.25487    0.49596    0.69738   1.00
H2       0.31474    0.60429    0.67439   1.00
H2       0.35879    0.66641    0.65550   1.00
H2       0.27371    0.60653    0.65173   1.00
H2       0.43392    0.61509    0.66716   1.00
H2       0.44108    0.56514    0.64818   1.00
H2       0.44760    0.64310    0.64184   1.00
H2       0.38292    0.35290    0.60387   1.00
H2       0.34873    0.27641    0.59015   1.00
H2       0.29424    0.29547    0.60399   1.00
H2       0.43856    0.26117    0.60739   1.00
H2       0.46525    0.32967    0.62426   1.00
H2       0.43751    0.24662    0.63345   1.00
H2       0.34956    0.22223    0.69854   1.00
H2       0.33996    0.29132    0.69100   1.00
H2       0.26877    0.20776    0.69078   1.00
H2       0.32899    0.13995    0.64781   1.00
H2       0.34225    0.13513    0.67385   1.00
H2       0.26190    0.11949    0.66527   1.00
H2       0.21072    0.29318    0.62522   1.00
H2       0.14016    0.23971    0.64072   1.00
H2       0.21183    0.30976    0.65131   1.00
H2       0.13708    0.13267    0.63378   1.00
H2       0.19985    0.17479    0.61496   1.00
H2       0.21025    0.12484    0.63370   1.00
C4       0.47456    -0.02913   0.11842   1.00
C4       0.50269    0.02460    0.13308   1.00
C3       0.49899    -0.07521   0.11526   1.00
C3       0.56185    0.04148    0.14471   1.00
C3       0.41957    -0.03706   0.10593   1.00
C3       0.47025    0.06394    0.13648   1.00
C2       0.41713    -0.13431   0.08778   1.00
C2       0.55733    0.13502    0.16210   1.00
C3       0.47136    -0.12612   0.10029   1.00
C3       0.58808    0.09474    0.15896   1.00
C3       0.39156    -0.08955   0.09117   1.00
C3       0.49917    0.11925    0.15027   1.00
H1       0.53741    -0.07330   0.12379   1.00
H1       0.58788    0.01586    0.14309   1.00
C5       0.39273    0.00730    0.10831   1.00
C5       0.40953    0.04835    0.12598   1.00
H1       0.49144    -0.15765   0.09860   1.00
H1       0.63066    0.10426    0.16706   1.00
H1       0.35089    -0.09582   0.08270   1.00
H1       0.47786    0.14963    0.15158   1.00
O3       0.34785    0.00694    0.09413   1.00
O3       0.37017    0.07635    0.13185   1.00
Si1      0.37647    0.06049    0.07517   1.00
Si1      0.31425    0.03945    0.14992   1.00
C6       0.29909    0.02617    0.06158   1.00
C6       0.40034    0.14196    0.08488   1.00
C6       0.44006    0.05585    0.06093   1.00
C6       0.30881    -0.03318   0.16175   1.00
C6       0.33834    0.10472    0.16791   1.00
C6       0.23422    0.01990    0.14003   1.00
C6       0.25940    -0.05327   0.05886   1.00
H2       0.26745    0.03709    0.07165   1.00
C6       0.29562    0.05564    0.04033   1.00
H2       0.36848    0.12937    0.09841   1.00
C6       0.47537    0.18807    0.09239   1.00
C6       0.38408    0.19026    0.07206   1.00
H2       0.41751    0.00095    0.05864   1.00
C6       0.45587    0.08849    0.03924   1.00
C6       0.51238    0.08150    0.07056   1.00
C6       0.29417    -0.09552   0.14810   1.00
C6       0.36544    -0.02419   0.17715   1.00
H2       0.26357    -0.05092   0.17125   1.00
H2       0.38621    0.11173    0.17400   1.00
C6       0.35557    0.17617    0.15941   1.00
C6       0.28992    0.09007    0.18646   1.00
H2       0.23405    0.06793    0.14104   1.00
C6       0.22191    -0.00003   0.11715   1.00
C6       0.16873    -0.03415   0.15149   1.00
H2       0.24935    -0.07945   0.07345   1.00
H2       0.28811    -0.06996   0.04947   1.00
H2       0.20984    -0.07081   0.05169   1.00
H2       0.24597    0.05205    0.03837   1.00
H2       0.33442    0.10885    0.03842   1.00
H2       0.30116    0.02723    0.02781   1.00
H2       0.47965    0.22976    0.10182   1.00
H2       0.49263    0.15997    0.10171   1.00
H2       0.51041    0.21079    0.07965   1.00
H2       0.32988    0.16609    0.06846   1.00
H2       0.39662    0.23685    0.08041   1.00
H2       0.41337    0.20540    0.05796   1.00
H2       0.46776    0.14152    0.03979   1.00
H2       0.49903    0.08744    0.03214   1.00
H2       0.41325    0.06027    0.02899   1.00
H2       0.54650    0.13598    0.06813   1.00
H2       0.51092    0.07269    0.08675   1.00
H2       0.53651    0.05497    0.06363   1.00
H2       0.34056    -0.08928   0.14113   1.00
H2       0.27257    -0.14222   0.15714   1.00
H2       0.25773    -0.10405   0.13610   1.00
H2       0.35006    -0.07191   0.18523   1.00
H2       0.41360    -0.00991   0.16969   1.00
H2       0.37467    0.01386    0.18873   1.00
H2       0.38085    0.21549    0.17102   1.00
H2       0.39052    0.19108    0.14652   1.00
H2       0.30996    0.17705    0.15454   1.00
H2       0.27672    0.04179    0.19379   1.00
H2       0.31485    0.12996    0.19795   1.00
H2       0.24290    0.08888    0.18199   1.00
H2       0.22349    -0.04647   0.11398   1.00
H2       0.17287    -0.00741   0.11195   1.00
H2       0.26102    0.04065    0.10804   1.00
H2       0.12342    -0.03404   0.14579   1.00
H2       0.16055    -0.08563   0.14952   1.00
H2       0.17161    -0.02343   0.16769   1.00
C4       1.02616    0.49502    0.11755   1.00
C4       0.97390    0.47073    0.13266   1.00
C3       1.07830    0.47761    0.11703   1.00
C3       0.97215    0.43176    0.14977   1.00
C3       1.02747    0.54012    0.10220   1.00
C3       0.91998    0.48573    0.13072   1.00
C2       1.13200    0.54898    0.08707   1.00
C2       0.86729    0.42479    0.16281   1.00
C3       1.13000    0.50412    0.10229   1.00
C3       0.91999    0.40887    0.16433   1.00
C3       1.07933    0.56529    0.08723   1.00
C3       0.86952    0.46467    0.14601   1.00
H1       1.08011    0.44498    0.12731   1.00
H1       1.00895    0.41923    0.15222   1.00
C5       0.97682    0.55953    0.10184   1.00
C5       0.91695    0.52215    0.11364   1.00
H1       1.16665    0.49011    0.10276   1.00
H1       0.92103    0.38037    0.17629   1.00
H1       1.07853    0.59608    0.07599   1.00
H1       0.83376    0.47953    0.14506   1.00
O3       0.98458    0.61144    0.08922   1.00
O3       0.85892    0.52550    0.10939   1.00
Si1      1.02034    0.68949    0.09777   1.00
Si1      0.79750    0.46357    0.09659   1.00
C6       1.02583    0.72961    0.07433   1.00
C6       0.96139    0.69451    0.11412   1.00
C6       1.10194    0.71818    0.10830   1.00
C6       0.80706    0.39349    0.08952   1.00
C6       0.72693    0.43549    0.11279   1.00
C6       0.78265    0.50004    0.07498   1.00
C6       1.05494    0.70734    0.05615   1.00
H2       0.97223    0.71038    0.07066   1.00
C6       1.06106    0.80931    0.07272   1.00
H2       0.91289    0.65345    0.10842   1.00
C6       0.96312    0.67913    0.13718   1.00
C6       0.95494    0.76015    0.11351   1.00
H2       1.12637    0.70311    0.09671   1.00
C6       1.14909    0.79700    0.11116   1.00
C6       1.10874    0.68698    0.12887   1.00
C6       0.87075    0.40791    0.07657   1.00
C6       0.79861    0.33974    0.10592   1.00
H2       0.76339    0.36486    0.07952   1.00
H2       0.73819    0.41086    0.12522   1.00
C6       0.71714    0.49253    0.12296   1.00
C6       0.65570    0.38133    0.10424   1.00
H2       0.75084    0.52017    0.08058   1.00
C6       0.84626    0.56262    0.06552   1.00
C6       0.74256    0.45186    0.05685   1.00
H2       1.02619    0.65218    0.05388   1.00
H2       1.10834    0.72228    0.05866   1.00
H2       1.05177    0.73049    0.04194   1.00
H2       1.03582    0.82333    0.06110   1.00
H2       1.05929    0.83320    0.08682   1.00
H2       1.11454    0.83271    0.06823   1.00
H2       0.91611    0.66964    0.14470   1.00
H2       0.96714    0.63374    0.13960   1.00
H2       1.00553    0.72206    0.14488   1.00
H2       0.94341    0.77011    0.09825   1.00
H2       0.91320    0.75469    0.12317   1.00
H2       1.00170    0.80469    0.11883   1.00
H2       1.12337    0.81859    0.11986   1.00
H2       1.19652    0.80967    0.11904   1.00
H2       1.16495    0.82302    0.09664   1.00
H2       1.10448    0.71398    0.14200   1.00
H2       1.07093    0.63364    0.13075   1.00
H2       1.15868    0.69058    0.12976   1.00
H2       0.91556    0.42307    0.08601   1.00
H2       0.86128    0.36202    0.06836   1.00
H2       0.88329    0.44755    0.06529   1.00
H2       0.79633    0.29506    0.09877   1.00
H2       0.84097    0.35990    0.11657   1.00
H2       0.75145    0.32097    0.11453   1.00
H2       0.67967    0.47112    0.13521   1.00
H2       0.76461    0.53215    0.12972   1.00
H2       0.69939    0.51675    0.11215   1.00
H2       0.65717    0.33829    0.09734   1.00
H2       0.61799    0.36067    0.11646   1.00
H2       0.63725    0.40364    0.09297   1.00
H2       0.88366    0.54956    0.05998   1.00
H2       0.83214    0.58457    0.05297   1.00
H2       0.87104    0.60237    0.07685   1.00
H2       0.72765    0.47821    0.04586   1.00
H2       0.77347    0.43461    0.04885   1.00
H2       0.69575    0.40705    0.06189   1.00
C4       0.50524    0.53084    0.11737   1.00
C4       0.52962    0.50305    0.13251   1.00
C3       0.52963    0.60170    0.11511   1.00
C3       0.57617    0.54266    0.14803   1.00
C3       0.45280    0.48564    0.10384   1.00
C3       0.50669    0.43176    0.13227   1.00
C2       0.45092    0.58276    0.08702   1.00
C2       0.57531    0.44278    0.16286   1.00
C3       0.50298    0.62697    0.10044   1.00
C3       0.59891    0.51350    0.16268   1.00
C3       0.42749    0.51224    0.08889   1.00
C3       0.52796    0.40293    0.14768   1.00
H1       0.56763    0.63705    0.12402   1.00
H1       0.59461    0.59378    0.14923   1.00
C5       0.42618    0.41421    0.10528   1.00
C5       0.46224    0.38948    0.11678   1.00
H1       0.52227    0.67869    0.09961   1.00
H1       0.63305    0.54474    0.17343   1.00
H1       0.39122    0.47935    0.07893   1.00
H1       0.50771    0.35121    0.14805   1.00
O3       0.36830    0.37035    0.09460   1.00
O3       0.45026    0.32393    0.11388   1.00
Si1      0.29363    0.33843    0.10540   1.00
Si1      0.50346    0.31258    0.10001   1.00
C6       0.24414    0.29970    0.08356   1.00
C6       0.28685    0.27683    0.12304   1.00
C6       0.27698    0.40110    0.11530   1.00
C6       0.57574    0.38531    0.09006   1.00
C6       0.52997    0.26935    0.11645   1.00
C6       0.45597    0.25639    0.08026   1.00
C6       0.26479    0.34527    0.06403   1.00
H2       0.25659    0.25990    0.08026   1.00
C6       0.16418    0.26250    0.08433   1.00
H2       0.32215    0.26199    0.11678   1.00
C6       0.31112    0.30014    0.14532   1.00
C6       0.21697    0.20906    0.12512   1.00
H2       0.29177    0.43714    0.10270   1.00
C6       0.20092    0.37867    0.12024   1.00
C6       0.31761    0.44361    0.13439   1.00
C6       0.56385    0.43498    0.07646   1.00
C6       0.63677    0.43134    0.10445   1.00
H2       0.59709    0.36270    0.07991   1.00
H2       0.56145    0.30791    0.12762   1.00
C6       0.47241    0.20943    0.12897   1.00
C6       0.57529    0.24181    0.10732   1.00
H2       0.43292    0.20600    0.08726   1.00
C6       0.39472    0.26245    0.07199   1.00
C6       0.49548    0.25309    0.06119   1.00
H2       0.31843    0.36535    0.06021   1.00
H2       0.25641    0.38845    0.06601   1.00
H2       0.23523    0.31602    0.05087   1.00
H2       0.14243    0.21928    0.07385   1.00
H2       0.14373    0.24293    0.09931   1.00
H2       0.14453    0.29574    0.07968   1.00
H2       0.31799    0.26178    0.15338   1.00
H2       0.36008    0.34717    0.14588   1.00
H2       0.27382    0.30747    0.15377   1.00
H2       0.19989    0.18291    0.11058   1.00
H2       0.22097    0.17320    0.13536   1.00
H2       0.17769    0.21874    0.13118   1.00
H2       0.17814    0.33432    0.13025   1.00
H2       0.19605    0.41936    0.12759   1.00
H2       0.17054    0.36671    0.10650   1.00
H2       0.29325    0.41824    0.14857   1.00
H2       0.36967    0.45377    0.13496   1.00
H2       0.32016    0.49315    0.13438   1.00
H2       0.55659    0.47109    0.08551   1.00
H2       0.60805    0.46491    0.06671   1.00
H2       0.51989    0.40793    0.06653   1.00
H2       0.68094    0.46807    0.09564   1.00
H2       0.62437    0.46062    0.11494   1.00
H2       0.65374    0.40177    0.11323   1.00
H2       0.49457    0.19363    0.14109   1.00
H2       0.43887    0.22485    0.13626   1.00
H2       0.44114    0.16491    0.11954   1.00
H2       0.61828    0.28105    0.09876   1.00
H2       0.59662    0.22506    0.11943   1.00
H2       0.54578    0.19818    0.09736   1.00
H2       0.41104    0.31219    0.06521   1.00
H2       0.36566    0.22331    0.06066   1.00
H2       0.35988    0.25530    0.08428   1.00
H2       0.46225    0.20954    0.05160   1.00
H2       0.51457    0.29910    0.05194   1.00
H2       0.53859    0.24686    0.06542   1.00
C4       0.63780    0.80848    0.71501   1.00
C4       0.69155    0.83649    0.70035   1.00
C3       0.59649    0.83749    0.71968   1.00
C3       0.71339    0.89953    0.69029   1.00
C3       0.62485    0.74870    0.72591   1.00
C3       0.72568    0.79985    0.69531   1.00
C2       0.53234    0.75069    0.74556   1.00
C2       0.80169    0.89045    0.67124   1.00
C3       0.54547    0.80966    0.73461   1.00
C3       0.76650    0.92549    0.67599   1.00
C3       0.57229    0.72068    0.74064   1.00
C3       0.78100    0.82830    0.68151   1.00
H1       0.60211    0.87955    0.71233   1.00
H1       0.69164    0.92865    0.69313   1.00
C5       0.66428    0.71715    0.72196   1.00
C5       0.70492    0.73536    0.70417   1.00
H1       0.51754    0.83313    0.73745   1.00
H1       0.77972    0.97104    0.66906   1.00
H1       0.56233    0.67671    0.74794   1.00
H1       0.80771    0.80356    0.67904   1.00
O3       0.65948    0.66673    0.73472   1.00
O3       0.72764    0.69324    0.69665   1.00
Si1      0.71290    0.68645    0.75357   1.00
Si1      0.68733    0.64327    0.67757   1.00
C6       0.67274    0.60559    0.76533   1.00
C6       0.79249    0.70608    0.74324   1.00
C6       0.71463    0.74938    0.76977   1.00
C6       0.61804    0.64765    0.66686   1.00
C6       0.75164    0.66684    0.65929   1.00
C6       0.66093    0.55922    0.68532   1.00
C6       0.59358    0.57114    0.76817   1.00
H2       0.68007    0.57424    0.75415   1.00
C6       0.70021    0.59359    0.78588   1.00
H2       0.77753    0.67766    0.72901   1.00
C6       0.84355    0.78177    0.73727   1.00
C6       0.83660    0.68118    0.75470   1.00
H2       0.66038    0.73054    0.77230   1.00
C6       0.74697    0.75704    0.79131   1.00
C6       0.74604    0.82476    0.76195   1.00
C6       0.55746    0.63478    0.68107   1.00
C6       0.63218    0.70978    0.65310   1.00
H2       0.59687    0.60472    0.65632   1.00
H2       0.76298    0.71762    0.65456   1.00
C6       0.82098    0.67573    0.66707   1.00
C6       0.73314    0.62269    0.63957   1.00
H2       0.70644    0.55472    0.68349   1.00
C6       0.64072    0.54230    0.70806   1.00
C6       0.60339    0.49919    0.67282   1.00
H2       0.56787    0.56699    0.75378   1.00
H2       0.58051    0.60016    0.77869   1.00
H2       0.57207    0.51932    0.77410   1.00
H2       0.69195    0.54173    0.78638   1.00
H2       0.75441    0.62842    0.78807   1.00
H2       0.67375    0.59879    0.79901   1.00
H2       0.88353    0.78472    0.72730   1.00
H2       0.81866    0.80487    0.72899   1.00
H2       0.86842    0.81275    0.75064   1.00
H2       0.80838    0.62610    0.75704   1.00
H2       0.88202    0.69198    0.74597   1.00
H2       0.85372    0.70653    0.76937   1.00
H2       0.79839    0.76450    0.79022   1.00
H2       0.75014    0.80021    0.79971   1.00
H2       0.71600    0.71266    0.80069   1.00
H2       0.80099    0.85445    0.76449   1.00
H2       0.73765    0.82832    0.74593   1.00
H2       0.72322    0.85060    0.77005   1.00
H2       0.56786    0.68065    0.68932   1.00
H2       0.51115    0.61911    0.67219   1.00
H2       0.54575    0.59450    0.69205   1.00
H2       0.58551    0.70045    0.64539   1.00
H2       0.65037    0.75662    0.66175   1.00
H2       0.66921    0.71880    0.64120   1.00
H2       0.86077    0.70135    0.65560   1.00
H2       0.83844    0.70732    0.68071   1.00
H2       0.81733    0.62688    0.67050   1.00
H2       0.68615    0.61547    0.63270   1.00
H2       0.77344    0.64786    0.62822   1.00
H2       0.72739    0.57267    0.64261   1.00
H2       0.59684    0.54755    0.71206   1.00
H2       0.62891    0.49058    0.71188   1.00
H2       0.68302    0.57675    0.71765   1.00
H2       0.59904    0.45051    0.67711   1.00
H2       0.55380    0.49507    0.67540   1.00
H2       0.61393    0.50541    0.65659   1.00
C4       0.17078    0.35930    0.71593   1.00
C4       0.14428    0.30580    0.70119   1.00
C3       0.21585    0.36488    0.73175   1.00
C3       0.15518    0.24929    0.70189   1.00
C3       0.15062    0.40975    0.71514   1.00
C3       0.10472    0.30844    0.68473   1.00
C2       0.21944    0.46709    0.74575   1.00
C2       0.08765    0.19888    0.67105   1.00
C3       0.23923    0.41703    0.74632   1.00
C3       0.12820    0.19761    0.68713   1.00
C3       0.17578    0.46269    0.72976   1.00
C3       0.07557    0.25438    0.67051   1.00
H1       0.23320    0.33134    0.73310   1.00
H1       0.18268    0.24377    0.71320   1.00
C5       0.10569    0.40715    0.69971   1.00
C5       0.09390    0.36461    0.68261   1.00
H1       0.27135    0.41819    0.75749   1.00
H1       0.13824    0.15827    0.68831   1.00
H1       0.16239    0.49959    0.72867   1.00
H1       0.04380    0.25485    0.65957   1.00
O3       0.07751    0.44868    0.70095   1.00
O3       0.06777    0.37502    0.66489   1.00
Si1      0.00290    0.42026    0.71152   1.00
Si1      0.11983    0.41560    0.64624   1.00
C6       0.00298    0.49825    0.71161   1.00
C6       -0.05869   0.36143    0.69459   1.00
C6       -0.00152   0.38950    0.73641   1.00
C6       0.20708    0.44177    0.64932   1.00
C6       0.08605    0.35738    0.62607   1.00
C6       0.11027    0.48623    0.64033   1.00
C6       0.06978    0.56175    0.71960   1.00
H2       0.00103    0.50759    0.69544   1.00
C6       -0.05711   0.50390    0.72147   1.00
H2       -0.03265   0.37847    0.68002   1.00
C6       -0.07951   0.28455    0.69645   1.00
C6       -0.12746   0.36135    0.69207   1.00
H2       0.04494    0.43036    0.74328   1.00
C6       -0.06188   0.38093    0.75010   1.00
C6       0.00029    0.32170    0.73979   1.00
C6       0.24592    0.48899    0.66770   1.00
C6       0.23067    0.38756    0.64809   1.00
H2       0.22994    0.47323    0.63589   1.00
H2       0.09663    0.31701    0.63032   1.00
C6       0.00688    0.32114    0.62319   1.00
C6       0.11836    0.38284    0.60462   1.00
H2       0.06459    0.46484    0.63087   1.00
C6       0.09466    0.52049    0.65846   1.00
C6       0.16790    0.54573    0.62770   1.00
H2       0.11463    0.56895    0.71128   1.00
H2       0.07784    0.55641    0.73569   1.00
H2       0.06769    0.60864    0.71771   1.00
H2       -0.06541   0.54089    0.71314   1.00
H2       -0.10502   0.45582    0.72148   1.00
H2       -0.04627   0.52182    0.73714   1.00
H2       -0.10605   0.25650    0.68277   1.00
H2       -0.03542   0.27786    0.69816   1.00
H2       -0.11378   0.26036    0.70927   1.00
H2       -0.11874   0.41158    0.68771   1.00
H2       -0.15885   0.32636    0.68005   1.00
H2       -0.15727   0.34540    0.70606   1.00
H2       -0.11094   0.34948    0.74263   1.00
H2       -0.06324   0.35721    0.76469   1.00
H2       -0.05667   0.42999    0.75389   1.00
H2       -0.05045   0.27666    0.73898   1.00
H2       0.03195    0.31431    0.72895   1.00
H2       0.02069    0.32188    0.75485   1.00
H2       0.23817    0.45982    0.68156   1.00
H2       0.30082    0.51713    0.66480   1.00
H2       0.23042    0.52664    0.67056   1.00
H2       0.28632    0.41259    0.64740   1.00
H2       0.21467    0.35406    0.66124   1.00
H2       0.21170    0.35608    0.63450   1.00
H2       -0.01038   0.27811    0.61272   1.00
H2       -0.01994   0.30050    0.63750   1.00
H2       -0.00924   0.35562    0.61707   1.00
H2       0.17384    0.40721    0.60506   1.00
H2       0.10028    0.33991    0.59408   1.00
H2       0.10458    0.41889    0.59829   1.00
H2       0.13593    0.54186    0.66954   1.00
H2       0.08552    0.56114    0.65337   1.00
H2       0.04874    0.48304    0.66619   1.00
H2       0.15139    0.58097    0.62241   1.00
H2       0.21407    0.57504    0.63673   1.00
H2       0.18122    0.52693    0.61424   1.00
C4       0.18860    0.82911    0.71586   1.00
C4       0.16155    0.85559    0.70114   1.00
C3       0.14849    0.78149    0.73109   1.00
C3       0.09313    0.84194    0.70130   1.00
C3       0.25988    0.85196    0.71570   1.00
C3       0.20475    0.89802    0.68525   1.00
C2       0.24773    0.78059    0.74573   1.00
C2       0.11113    0.91232    0.67107   1.00
C3       0.17725    0.75817    0.74568   1.00
C3       0.06841    0.86898    0.68658   1.00
C3       0.28769    0.82684    0.73032   1.00
C3       0.17964    0.92711    0.67107   1.00
H1       0.09716    0.76218    0.73198   1.00
H1       0.05937    0.81229    0.71219   1.00
C5       0.30285    0.89952    0.70088   1.00
C5       0.27288    0.91174    0.68367   1.00
H1       0.14579    0.72411    0.75642   1.00
H1       0.01831    0.85689    0.68735   1.00
H1       0.33856    0.84224    0.72967   1.00
H1       0.21238    0.96085    0.66058   1.00
O3       0.37263    0.92993    0.70278   1.00
O3       0.31104    0.94096    0.66638   1.00
Si1      0.41529    1.00357    0.71418   1.00
Si1      0.30373    0.89182    0.64731   1.00
C6       0.49481    1.00685    0.71479   1.00
C6       0.41731    1.06588    0.69770   1.00
C6       0.38538    1.00379    0.73889   1.00
C6       0.24487    0.80356    0.64938   1.00
C6       0.27957    0.92616    0.62723   1.00
C6       0.38583    0.90533    0.64202   1.00
C6       0.49348    0.94049    0.72230   1.00
H2       0.50808    1.01117    0.69872   1.00
C6       0.55815    1.06724    0.72551   1.00
H2       0.41092    1.04178    0.68291   1.00
C6       0.35896    1.08357    0.69932   1.00
C6       0.48468    1.13634    0.69612   1.00
H2       0.38095    0.95734    0.74540   1.00
C6       0.43404    1.06338    0.75334   1.00
C6       0.31404    0.99861    0.74179   1.00
C6       0.25306    0.76379    0.66753   1.00
C6       0.16664    0.77729    0.64745   1.00
H2       0.25618    0.78319    0.63585   1.00
H2       0.22755    0.91311    0.63105   1.00
C6       0.32022    1.00571    0.62518   1.00
C6       0.27643    0.89684    0.60553   1.00
H2       0.40967    0.95214    0.63305   1.00
C6       0.43399    0.92059    0.66058   1.00
C6       0.39171    0.85061    0.62901   1.00
H2       0.45798    0.89604    0.71342   1.00
H2       0.47834    0.93013    0.73822   1.00
H2       0.54360    0.94488    0.72075   1.00
H2       0.60496    1.07830    0.71755   1.00
H2       0.55586    1.11404    0.72585   1.00
H2       0.56408    1.05509    0.74114   1.00
H2       0.35780    1.11106    0.68582   1.00
H2       0.30887    1.03809    0.70039   1.00
H2       0.36628    1.11596    0.71244   1.00
H2       0.52793    1.13014    0.69199   1.00
H2       0.48097    1.16828    0.68431   1.00
H2       0.49593    1.16441    0.71040   1.00
H2       0.45069    1.11296    0.74634   1.00
H2       0.40951    1.06201    0.76778   1.00
H2       0.47860    1.05973    0.75740   1.00
H2       0.31771    1.04853    0.74136   1.00
H2       0.27680    0.96727    0.73047   1.00
H2       0.29259    0.97601    0.75656   1.00
H2       0.22929    0.76879    0.68129   1.00
H2       0.22850    0.70935    0.66407   1.00
H2       0.30631    0.78090    0.67085   1.00
H2       0.13792    0.72168    0.64617   1.00
H2       0.14659    0.79061    0.66058   1.00
H2       0.15458    0.79690    0.63392   1.00
H2       0.29435    1.02271    0.61467   1.00
H2       0.32373    1.03048    0.63972   1.00
H2       0.37185    1.02438    0.61953   1.00
H2       0.24707    0.84124    0.60537   1.00
H2       0.25147    0.91469    0.59495   1.00
H2       0.32741    0.91322    0.59963   1.00
H2       0.41424    0.87809    0.67123   1.00
H2       0.48499    0.93228    0.65589   1.00
H2       0.43973    0.96490    0.66868   1.00
H2       0.44441    0.86961    0.62420   1.00
H2       0.37551    0.80370    0.63761   1.00
H2       0.36103    0.83780    0.61526   1.00
