data_IRMOF10_interpen_symm_ligand2lp_label_b.

_audit_creation_method             'generated by an auxiliary program of Tobunporous'

_symmetry_space_group_name_H-M     'P 1'
_symmetry_Int_Tables_number        1
_symmetry_cell_setting             triclinic

_cell_length_a                    22.6523
_cell_length_b                    22.6523
_cell_length_c                    65.9502
_cell_angle_alpha                 90.0000
_cell_angle_beta                  90.0000
_cell_angle_gamma                 120.0000

loop_
_atom_site_label
_atom_site_fract_x
_atom_site_fract_y
_atom_site_fract_z
_atom_site_occupancy
O1       0.00000    -0.00000   0.62500   1.00
Zn      0.00000    -0.00000   0.59589   1.00
Zn      0.94848    1.04288    0.63392   1.00
Zn      0.09439    0.05152    0.63392   1.00
Zn      -0.04288   0.90561    0.63392   1.00
O2       0.93860    0.02610    0.58587   1.00
O2       0.08750    0.06140    0.58587   1.00
O2       -0.02610   0.91250    0.58587   1.00
O2       0.91305    0.07161    0.61181   1.00
O2       0.00462    0.12022    0.65110   1.00
O2       0.87413    0.98074    0.65071   1.00
O2       0.15856    0.08695    0.61181   1.00
O2       0.10660    0.12587    0.65071   1.00
O2       0.11559    0.99538    0.65110   1.00
O2       -0.07161   0.84144    0.61181   1.00
O2       0.87978    0.88441    0.65110   1.00
O2       0.01926    0.89340    0.65071   1.00
C1       0.91390    0.06020    0.59358   1.00
C1       0.14630    0.08610    0.59358   1.00
C1       -0.06020   0.85370    0.59358   1.00
C1       0.06663    0.14397    0.65673   1.00
C1       0.85603    0.92267    0.65673   1.00
C1       0.07733    0.93337    0.65673   1.00
O1       -0.00000   0.00000    0.87500   1.00
Zn      -0.00000   0.00000    0.90411   1.00
Zn      1.04288    0.94848    0.86608   1.00
Zn      0.05152    0.09439    0.86608   1.00
Zn      0.90561    -0.04288   0.86608   1.00
O2       0.02610    0.93860    0.91413   1.00
O2       0.06140    0.08750    0.91413   1.00
O2       0.91250    -0.02610   0.91413   1.00
O2       0.07161    0.91305    0.88819   1.00
O2       0.12022    0.00462    0.84890   1.00
O2       0.98074    0.87413    0.84929   1.00
O2       0.08695    0.15856    0.88819   1.00
O2       0.12587    0.10660    0.84929   1.00
O2       0.99538    0.11559    0.84890   1.00
O2       0.84144    -0.07161   0.88819   1.00
O2       0.88441    0.87978    0.84890   1.00
O2       0.89340    0.01926    0.84929   1.00
C1       0.06020    0.91390    0.90642   1.00
C1       0.08610    0.14630    0.90642   1.00
C1       0.85370    -0.06020   0.90642   1.00
C1       0.14397    0.06663    0.84327   1.00
C1       0.92267    0.85603    0.84327   1.00
C1       0.93337    0.07733    0.84327   1.00
O1       0.00000    0.00000    0.37500   1.00
Zn      0.00000    0.00000    0.40411   1.00
Zn      0.05152    -0.04288   0.36608   1.00
Zn      0.90561    0.94848    0.36608   1.00
Zn      1.04288    0.09439    0.36608   1.00
O2       0.06140    -0.02610   0.41413   1.00
O2       0.91250    0.93860    0.41413   1.00
O2       0.02610    0.08750    0.41413   1.00
O2       0.08695    -0.07161   0.38819   1.00
O2       0.99538    0.87978    0.34890   1.00
O2       0.12587    0.01926    0.34929   1.00
O2       0.84144    0.91305    0.38819   1.00
O2       0.89340    0.87413    0.34929   1.00
O2       0.88441    0.00462    0.34890   1.00
O2       0.07161    0.15856    0.38819   1.00
O2       0.12022    0.11559    0.34890   1.00
O2       0.98074    0.10660    0.34929   1.00
C1       0.08610    -0.06020   0.40642   1.00
C1       0.85370    0.91390    0.40642   1.00
C1       0.06020    0.14630    0.40642   1.00
C1       0.93337    0.85603    0.34327   1.00
C1       0.14397    0.07733    0.34327   1.00
C1       0.92267    0.06663    0.34327   1.00
O1       0.00000    0.00000    0.12500   1.00
Zn      0.00000    0.00000    0.09589   1.00
Zn      -0.04288   0.05152    0.13392   1.00
Zn      0.94848    0.90561    0.13392   1.00
Zn      0.09439    1.04288    0.13392   1.00
O2       -0.02610   0.06140    0.08587   1.00
O2       0.93860    0.91250    0.08587   1.00
O2       0.08750    0.02610    0.08587   1.00
O2       -0.07161   0.08695    0.11181   1.00
O2       0.87978    0.99538    0.15110   1.00
O2       0.01926    0.12587    0.15071   1.00
O2       0.91305    0.84144    0.11181   1.00
O2       0.87413    0.89340    0.15071   1.00
O2       0.00462    0.88441    0.15110   1.00
O2       0.15856    0.07161    0.11181   1.00
O2       0.11559    0.12022    0.15110   1.00
O2       0.10660    0.98074    0.15071   1.00
C1       -0.06020   0.08610    0.09358   1.00
C1       0.91390    0.85370    0.09358   1.00
C1       0.14630    0.06020    0.09358   1.00
C1       0.85603    0.93337    0.15673   1.00
C1       0.07733    0.14397    0.15673   1.00
C1       0.06663    0.92267    0.15673   1.00
O1       0.66667    0.33333    0.95833   1.00
Zn      0.66667    0.33333    0.92922   1.00
Zn      0.61515    0.37621    0.96725   1.00
Zn      0.76106    0.38485    0.96725   1.00
Zn      -0.37621   0.23894    0.96725   1.00
O2       0.60527    0.35943    0.91920   1.00
O2       0.75417    0.39473    0.91920   1.00
O2       0.64057    0.24583    0.91920   1.00
O2       0.57972    0.40494    0.94514   1.00
O2       0.67129    0.45355    0.98443   1.00
O2       0.54080    0.31407    0.98404   1.00
O2       0.82523    0.42028    0.94514   1.00
O2       0.77327    0.45920    0.98404   1.00
O2       -0.21774   0.32871    0.98443   1.00
O2       0.59506    0.17477    0.94514   1.00
O2       0.54645    0.21774    0.98443   1.00
O2       -0.31407   0.22673    0.98404   1.00
C1       0.58057    0.39353    0.92691   1.00
C1       0.81297    0.41943    0.92691   1.00
C1       0.60647    0.18703    0.92691   1.00
C1       0.73330    0.47730    0.99006   1.00
C1       0.52270    0.25600    0.99006   1.00
C1       -0.25600   0.26670    0.99006   1.00
O1       0.66667    0.33333    0.20833   1.00
Zn      0.66667    0.33333    0.23744   1.00
Zn      0.70954    0.28182    0.19942   1.00
Zn      0.71818    0.42773    0.19942   1.00
Zn      0.57227    0.29046    0.19942   1.00
O2       0.69277    0.27193    0.24746   1.00
O2       0.72807    0.42083    0.24746   1.00
O2       0.57917    0.30723    0.24746   1.00
O2       0.73828    0.24638    0.22152   1.00
O2       0.78688    0.33796    0.18224   1.00
O2       0.64740    0.20747    0.18263   1.00
O2       0.75362    0.49189    0.22152   1.00
O2       0.79253    0.43994    0.18263   1.00
O2       0.66204    0.44893    0.18224   1.00
O2       0.50811    0.26172    0.22152   1.00
O2       0.55107    0.21312    0.18224   1.00
O2       0.56006    0.35260    0.18263   1.00
C1       0.72687    0.24723    0.23975   1.00
C1       0.75277    0.47963    0.23975   1.00
C1       0.52037    0.27313    0.23975   1.00
C1       0.81063    0.39997    0.17661   1.00
C1       0.58933    0.18937    0.17661   1.00
C1       0.60003    0.41067    0.17661   1.00
O1       0.66667    0.33333    0.70833   1.00
Zn      0.66667    0.33333    0.73744   1.00
Zn      0.71818    0.29046    0.69942   1.00
Zn      0.57227    0.28182    0.69942   1.00
Zn      0.70954    0.42773    0.69942   1.00
O2       0.72807    0.30723    0.74746   1.00
O2       0.57917    0.27193    0.74746   1.00
O2       0.69277    0.42083    0.74746   1.00
O2       0.75362    0.26172    0.72152   1.00
O2       0.66204    0.21312    0.68224   1.00
O2       0.79253    0.35260    0.68263   1.00
O2       0.50811    0.24638    0.72152   1.00
O2       0.56006    0.20747    0.68263   1.00
O2       0.55107    0.33796    0.68224   1.00
O2       0.73828    0.49189    0.72152   1.00
O2       0.78688    0.44893    0.68224   1.00
O2       0.64740    0.43994    0.68263   1.00
C1       0.75277    0.27313    0.73975   1.00
C1       0.52037    0.24723    0.73975   1.00
C1       0.72687    0.47963    0.73975   1.00
C1       0.60003    0.18937    0.67661   1.00
C1       0.81063    0.41067    0.67661   1.00
C1       0.58933    0.39997    0.67661   1.00
O1       0.66667    0.33333    0.45833   1.00
Zn      0.66667    0.33333    0.42922   1.00
Zn      -0.37621   0.38485    0.46725   1.00
Zn      0.61515    0.23894    0.46725   1.00
Zn      0.76106    0.37621    0.46725   1.00
O2       0.64057    0.39473    0.41920   1.00
O2       0.60527    0.24583    0.41920   1.00
O2       0.75417    0.35943    0.41920   1.00
O2       0.59506    0.42028    0.44514   1.00
O2       0.54645    0.32871    0.48443   1.00
O2       -0.31407   0.45920    0.48404   1.00
O2       0.57972    0.17477    0.44514   1.00
O2       0.54080    0.22673    0.48404   1.00
O2       0.67129    0.21774    0.48443   1.00
O2       0.82523    0.40494    0.44514   1.00
O2       -0.21774   0.45355    0.48443   1.00
O2       0.77327    0.31407    0.48404   1.00
C1       0.60647    0.41943    0.42691   1.00
C1       0.58057    0.18703    0.42691   1.00
C1       0.81297    0.39353    0.42691   1.00
C1       0.52270    0.26670    0.49006   1.00
C1       -0.25600   0.47730    0.49006   1.00
C1       0.73330    0.25600    0.49006   1.00
O1       0.33333    0.66667    0.29167   1.00
Zn      0.33333    0.66667    0.26256   1.00
Zn      0.28182    0.70954    0.30058   1.00
Zn      0.42773    0.71818    0.30058   1.00
Zn      0.29046    0.57227    0.30058   1.00
O2       0.27193    0.69277    0.25254   1.00
O2       0.42083    0.72807    0.25254   1.00
O2       0.30723    0.57917    0.25254   1.00
O2       0.24638    0.73828    0.27848   1.00
O2       0.33796    0.78688    0.31776   1.00
O2       0.20747    0.64740    0.31737   1.00
O2       0.49189    0.75362    0.27848   1.00
O2       0.43994    0.79253    0.31737   1.00
O2       0.44893    0.66204    0.31776   1.00
O2       0.26172    0.50811    0.27848   1.00
O2       0.21312    0.55107    0.31776   1.00
O2       0.35260    0.56006    0.31737   1.00
C1       0.24723    0.72687    0.26025   1.00
C1       0.47963    0.75277    0.26025   1.00
C1       0.27313    0.52037    0.26025   1.00
C1       0.39997    0.81063    0.32339   1.00
C1       0.18937    0.58933    0.32339   1.00
C1       0.41067    0.60003    0.32339   1.00
O1       0.33333    0.66667    0.54167   1.00
Zn      0.33333    0.66667    0.57078   1.00
Zn      0.37621    0.61515    0.53275   1.00
Zn      0.38485    0.76106    0.53275   1.00
Zn      0.23894    -0.37621   0.53275   1.00
O2       0.35943    0.60527    0.58080   1.00
O2       0.39473    0.75417    0.58080   1.00
O2       0.24583    0.64057    0.58080   1.00
O2       0.40494    0.57972    0.55486   1.00
O2       0.45355    0.67129    0.51557   1.00
O2       0.31407    0.54080    0.51596   1.00
O2       0.42028    0.82523    0.55486   1.00
O2       0.45920    0.77327    0.51596   1.00
O2       0.32871    -0.21774   0.51557   1.00
O2       0.17477    0.59506    0.55486   1.00
O2       0.21774    0.54645    0.51557   1.00
O2       0.22673    -0.31407   0.51596   1.00
C1       0.39353    0.58057    0.57309   1.00
C1       0.41943    0.81297    0.57309   1.00
C1       0.18703    0.60647    0.57309   1.00
C1       0.47730    0.73330    0.50994   1.00
C1       0.25600    0.52270    0.50994   1.00
C1       0.26670    -0.25600   0.50994   1.00
O1       0.33333    0.66667    0.04167   1.00
Zn      0.33333    0.66667    0.07078   1.00
Zn      0.38485    -0.37621   0.03275   1.00
Zn      0.23894    0.61515    0.03275   1.00
Zn      0.37621    0.76106    0.03275   1.00
O2       0.39473    0.64057    0.08080   1.00
O2       0.24583    0.60527    0.08080   1.00
O2       0.35943    0.75417    0.08080   1.00
O2       0.42028    0.59506    0.05486   1.00
O2       0.32871    0.54645    0.01557   1.00
O2       0.45920    -0.31407   0.01596   1.00
O2       0.17477    0.57972    0.05486   1.00
O2       0.22673    0.54080    0.01596   1.00
O2       0.21774    0.67129    0.01557   1.00
O2       0.40494    0.82523    0.05486   1.00
O2       0.45355    -0.21774   0.01557   1.00
O2       0.31407    0.77327    0.01596   1.00
C1       0.41943    0.60647    0.07309   1.00
C1       0.18703    0.58057    0.07309   1.00
C1       0.39353    0.81297    0.07309   1.00
C1       0.26670    0.52270    0.00994   1.00
C1       0.47730    -0.25600   0.00994   1.00
C1       0.25600    0.73330    0.00994   1.00
O1       0.33333    0.66667    0.79167   1.00
Zn      0.33333    0.66667    0.76256   1.00
Zn      0.29046    0.71818    0.80058   1.00
Zn      0.28182    0.57227    0.80058   1.00
Zn      0.42773    0.70954    0.80058   1.00
O2       0.30723    0.72807    0.75254   1.00
O2       0.27193    0.57917    0.75254   1.00
O2       0.42083    0.69277    0.75254   1.00
O2       0.26172    0.75362    0.77848   1.00
O2       0.21312    0.66204    0.81776   1.00
O2       0.35260    0.79253    0.81737   1.00
O2       0.24638    0.50811    0.77848   1.00
O2       0.20747    0.56006    0.81737   1.00
O2       0.33796    0.55107    0.81776   1.00
O2       0.49189    0.73828    0.77848   1.00
O2       0.44893    0.78688    0.81776   1.00
O2       0.43994    0.64740    0.81737   1.00
C1       0.27313    0.75277    0.76025   1.00
C1       0.24723    0.52037    0.76025   1.00
C1       0.47963    0.72687    0.76025   1.00
C1       0.18937    0.60003    0.82339   1.00
C1       0.41067    0.81063    0.82339   1.00
C1       0.39997    0.58933    0.82339   1.00
C2       -0.22517   0.51548    0.51210   1.00
C3       -0.24464   0.51013    0.53134   1.00
H1       -0.27722   0.46761    0.53622   1.00
C3       -0.17637   0.57760    0.50538   1.00
H1       -0.16126   0.58228    0.49205   1.00
C3a      -0.21837   0.56501    0.54432   1.00
H1       -0.23185   0.56125    0.55780   1.00
C3b      -0.14837   0.63409    0.51788   1.00
H1       -0.11420   0.67629    0.51328   1.00
C6       -0.16839   0.62802    0.53773   1.00
C6       -0.13790   0.68810    0.55134   1.00
C3c      -0.08231   0.70176    0.56333   1.00
H1       -0.06064   0.67637    0.56174   1.00
C3d      -0.16777   0.72876    0.55192   1.00
H1       -0.20550   0.72068    0.54423   1.00
C3       -0.05702   0.75650    0.57660   1.00
H1       -0.01894   0.76653    0.58446   1.00
C3       -0.13974   0.78355    0.56643   1.00
H1       -0.15903   0.81121    0.56753   1.00
C2       -0.08630   0.79640    0.57845   1.00
C2       0.48452    0.25935    0.51210   1.00
C3       0.48987    0.24523    0.53134   1.00
H1       0.53239    0.25517    0.53622   1.00
C3       0.42240    0.24603    0.50538   1.00
H1       0.41772    0.25646    0.49205   1.00
C3a      0.43499    0.21662    0.54432   1.00
H1       0.43875    0.20690    0.55780   1.00
C3b      0.36591    0.21754    0.51788   1.00
H1       0.32371    0.20952    0.51328   1.00
C6       0.37198    0.20359    0.53773   1.00
C6       0.31190    0.17400    0.55134   1.00
C3c      0.29824    0.21593    0.56333   1.00
H1       0.32363    0.26298    0.56174   1.00
C3d      0.27124    0.10347    0.55192   1.00
H1       0.27932    0.07383    0.54423   1.00
C3       0.24350    0.18648    0.57660   1.00
H1       0.23347    0.21453    0.58446   1.00
C3       0.21645    0.07671    0.56643   1.00
H1       0.18879    0.02976    0.56753   1.00
C2       0.20360    0.11730    0.57845   1.00
C2       0.74065    0.22517    0.51210   1.00
C3       0.75477    0.24464    0.53134   1.00
H1       0.74483    0.27722    0.53622   1.00
C3       0.75397    0.17637    0.50538   1.00
H1       0.74354    0.16126    0.49205   1.00
C3a      0.78338    0.21837    0.54432   1.00
H1       0.79310    0.23185    0.55780   1.00
C3b      0.78246    0.14837    0.51788   1.00
H1       0.79048    0.11420    0.51328   1.00
C6       0.79641    0.16839    0.53773   1.00
C6       0.82600    0.13790    0.55134   1.00
C3c      0.78407    0.08231    0.56333   1.00
H1       0.73702    0.06064    0.56174   1.00
C3d      0.89653    0.16777    0.55192   1.00
H1       0.92617    0.20550    0.54423   1.00
C3       0.81352    0.05702    0.57660   1.00
H1       0.78547    0.01894    0.58446   1.00
C3       0.92329    0.13974    0.56643   1.00
H1       0.97024    0.15903    0.56753   1.00
C2       0.88270    0.08630    0.57845   1.00
C2       0.51548    -0.22517   0.98790   1.00
C3       0.51013    -0.24464   0.96866   1.00
H1       0.46761    -0.27722   0.96378   1.00
C3       0.57760    -0.17637   0.99462   1.00
H1       0.58228    -0.16126   0.00795   1.00
C3a      0.56501    -0.21837   0.95568   1.00
H1       0.56125    -0.23185   0.94220   1.00
C3b      0.63409    -0.14837   0.98212   1.00
H1       0.67629    -0.11420   0.98672   1.00
C6       0.62802    -0.16839   0.96227   1.00
C6       0.68810    -0.13790   0.94866   1.00
C3c      0.70176    -0.08231   0.93667   1.00
H1       0.67637    -0.06064   0.93826   1.00
C3d      0.72876    -0.16777   0.94808   1.00
H1       0.72068    -0.20550   0.95577   1.00
C3       0.75650    -0.05702   0.92340   1.00
H1       0.76653    -0.01894   0.91554   1.00
C3       0.78355    -0.13974   0.93357   1.00
H1       0.81121    -0.15903   0.93247   1.00
C2       0.79640    -0.08630   0.92155   1.00
C2       0.25935    0.48452    0.98790   1.00
C3       0.24523    0.48987    0.96866   1.00
H1       0.25517    0.53239    0.96378   1.00
C3       0.24603    0.42240    0.99462   1.00
H1       0.25646    0.41772    0.00795   1.00
C3a      0.21662    0.43499    0.95568   1.00
H1       0.20690    0.43875    0.94220   1.00
C3b      0.21754    0.36591    0.98212   1.00
H1       0.20952    0.32371    0.98672   1.00
C6       0.20359    0.37198    0.96227   1.00
C6       0.17400    0.31190    0.94866   1.00
C3c      0.21593    0.29824    0.93667   1.00
H1       0.26298    0.32363    0.93826   1.00
C3d      0.10347    0.27124    0.94808   1.00
H1       0.07383    0.27932    0.95577   1.00
C3       0.18648    0.24350    0.92340   1.00
H1       0.21453    0.23347    0.91554   1.00
C3       0.07671    0.21645    0.93357   1.00
H1       0.02976    0.18879    0.93247   1.00
C2       0.11730    0.20360    0.92155   1.00
C2       0.22517    0.74065    0.98790   1.00
C3       0.24464    0.75477    0.96866   1.00
H1       0.27722    0.74483    0.96378   1.00
C3       0.17637    0.75397    0.99462   1.00
H1       0.16126    0.74354    0.00795   1.00
C3a      0.21837    0.78338    0.95568   1.00
H1       0.23185    0.79310    0.94220   1.00
C3b      0.14837    0.78246    0.98212   1.00
H1       0.11420    0.79048    0.98672   1.00
C6       0.16839    0.79641    0.96227   1.00
C6       0.13790    0.82600    0.94866   1.00
C3c      0.08231    0.78407    0.93667   1.00
H1       0.06064    0.73702    0.93826   1.00
C3d      0.16777    0.89653    0.94808   1.00
H1       0.20550    0.92617    0.95577   1.00
C3       0.05702    0.81352    0.92340   1.00
H1       0.01894    0.78547    0.91554   1.00
C3       0.13974    0.92329    0.93357   1.00
H1       0.15903    0.97024    0.93247   1.00
C2       0.08630    0.88270    0.92155   1.00
C2       0.22517    0.48452    0.48790   1.00
C3       0.24464    0.48987    0.46866   1.00
H1       0.27722    0.53239    0.46378   1.00
C3       0.17637    0.42240    0.49462   1.00
H1       0.16126    0.41772    0.50795   1.00
C3a      0.21837    0.43499    0.45568   1.00
H1       0.23185    0.43875    0.44220   1.00
C3b      0.14837    0.36591    0.48212   1.00
H1       0.11420    0.32371    0.48672   1.00
C6       0.16839    0.37198    0.46227   1.00
C6       0.13790    0.31190    0.44866   1.00
C3c      0.08231    0.29824    0.43667   1.00
H1       0.06064    0.32363    0.43826   1.00
C3d      0.16777    0.27124    0.44808   1.00
H1       0.20550    0.27932    0.45577   1.00
C3       0.05702    0.24350    0.42340   1.00
H1       0.01894    0.23347    0.41554   1.00
C3       0.13974    0.21645    0.43357   1.00
H1       0.15903    0.18879    0.43247   1.00
C2       0.08630    0.20360    0.42155   1.00
C2       0.51548    0.74065    0.48790   1.00
C3       0.51013    0.75477    0.46866   1.00
H1       0.46761    0.74483    0.46378   1.00
C3       0.57760    0.75397    0.49462   1.00
H1       0.58228    0.74354    0.50795   1.00
C3a      0.56501    0.78338    0.45568   1.00
H1       0.56125    0.79310    0.44220   1.00
C3b      0.63409    0.78246    0.48212   1.00
H1       0.67629    0.79048    0.48672   1.00
C6       0.62802    0.79641    0.46227   1.00
C6       0.68810    0.82600    0.44866   1.00
C3c      0.70176    0.78407    0.43667   1.00
H1       0.67637    0.73702    0.43826   1.00
C3d      0.72876    0.89653    0.44808   1.00
H1       0.72068    0.92617    0.45577   1.00
C3       0.75650    0.81352    0.42340   1.00
H1       0.76653    0.78547    0.41554   1.00
C3       0.78355    0.92329    0.43357   1.00
H1       0.81121    0.97024    0.43247   1.00
C2       0.79640    0.88270    0.42155   1.00
C2       0.25935    -0.22517   0.48790   1.00
C3       0.24523    -0.24464   0.46866   1.00
H1       0.25517    -0.27722   0.46378   1.00
C3       0.24603    -0.17637   0.49462   1.00
H1       0.25646    -0.16126   0.50795   1.00
C3a      0.21662    -0.21837   0.45568   1.00
H1       0.20690    -0.23185   0.44220   1.00
C3b      0.21754    -0.14837   0.48212   1.00
H1       0.20952    -0.11420   0.48672   1.00
C6       0.20359    -0.16839   0.46227   1.00
C6       0.17400    -0.13790   0.44866   1.00
C3c      0.21593    -0.08231   0.43667   1.00
H1       0.26298    -0.06064   0.43826   1.00
C3d      0.10347    -0.16777   0.44808   1.00
H1       0.07383    -0.20550   0.45577   1.00
C3       0.18648    -0.05702   0.42340   1.00
H1       0.21453    -0.01894   0.41554   1.00
C3       0.07671    -0.13974   0.43357   1.00
H1       0.02976    -0.15903   0.43247   1.00
C2       0.11730    -0.08630   0.42155   1.00
C2       0.48452    0.22517    0.01210   1.00
C3       0.48987    0.24464    0.03134   1.00
H1       0.53239    0.27722    0.03622   1.00
C3       0.42240    0.17637    0.00538   1.00
H1       0.41772    0.16126    0.99205   1.00
C3a      0.43499    0.21837    0.04432   1.00
H1       0.43875    0.23185    0.05780   1.00
C3b      0.36591    0.14837    0.01788   1.00
H1       0.32371    0.11420    0.01328   1.00
C6       0.37198    0.16839    0.03773   1.00
C6       0.31190    0.13790    0.05134   1.00
C3c      0.29824    0.08231    0.06333   1.00
H1       0.32363    0.06064    0.06174   1.00
C3d      0.27124    0.16777    0.05192   1.00
H1       0.27932    0.20550    0.04423   1.00
C3       0.24350    0.05702    0.07660   1.00
H1       0.23347    0.01894    0.08446   1.00
C3       0.21645    0.13974    0.06643   1.00
H1       0.18879    0.15903    0.06753   1.00
C2       0.20360    0.08630    0.07845   1.00
C2       0.74065    0.51548    0.01210   1.00
C3       0.75477    0.51013    0.03134   1.00
H1       0.74483    0.46761    0.03622   1.00
C3       0.75397    0.57760    0.00538   1.00
H1       0.74354    0.58228    0.99205   1.00
C3a      0.78338    0.56501    0.04432   1.00
H1       0.79310    0.56125    0.05780   1.00
C3b      0.78246    0.63409    0.01788   1.00
H1       0.79048    0.67629    0.01328   1.00
C6       0.79641    0.62802    0.03773   1.00
C6       0.82600    0.68810    0.05134   1.00
C3c      0.78407    0.70176    0.06333   1.00
H1       0.73702    0.67637    0.06174   1.00
C3d      0.89653    0.72876    0.05192   1.00
H1       0.92617    0.72068    0.04423   1.00
C3       0.81352    0.75650    0.07660   1.00
H1       0.78547    0.76653    0.08446   1.00
C3       0.92329    0.78355    0.06643   1.00
H1       0.97024    0.81121    0.06753   1.00
C2       0.88270    0.79640    0.07845   1.00
C2       -0.22517   0.25935    0.01210   1.00
C3       -0.24464   0.24523    0.03134   1.00
H1       -0.27722   0.25517    0.03622   1.00
C3       -0.17637   0.24603    0.00538   1.00
H1       -0.16126   0.25646    0.99205   1.00
C3a      -0.21837   0.21662    0.04432   1.00
H1       -0.23185   0.20690    0.05780   1.00
C3b      -0.14837   0.21754    0.01788   1.00
H1       -0.11420   0.20952    0.01328   1.00
C6       -0.16839   0.20359    0.03773   1.00
C6       -0.13790   0.17400    0.05134   1.00
C3c      -0.08231   0.21593    0.06333   1.00
H1       -0.06064   0.26298    0.06174   1.00
C3d      -0.16777   0.10347    0.05192   1.00
H1       -0.20550   0.07383    0.04423   1.00
C3       -0.05702   0.18648    0.07660   1.00
H1       -0.01894   0.21453    0.08446   1.00
C3       -0.13974   0.07671    0.06643   1.00
H1       -0.15903   0.02976    0.06753   1.00
C2       -0.08630   0.11730    0.07845   1.00
C2       0.44150    0.84881    0.84543   1.00
C3       0.42203    0.84346    0.86467   1.00
H1       0.38945    0.80094    0.86955   1.00
C3       0.49030    0.91093    0.83871   1.00
H1       0.50541    0.91561    0.82538   1.00
C3a      0.44830    0.89834    0.87765   1.00
H1       0.43482    0.89458    0.89113   1.00
C3b      0.51830    0.96742    0.85121   1.00
H1       0.55247    1.00962    0.84661   1.00
C6       0.49828    0.96135    0.87106   1.00
C6       0.52877    0.02143    0.88467   1.00
C3c      0.58436    0.03509    0.89666   1.00
H1       0.60603    0.00970    0.89507   1.00
C3d      0.49890    0.06209    0.88525   1.00
H1       0.46117    0.05401    0.87756   1.00
C3       0.60965    0.08983    0.90993   1.00
H1       0.64773    0.09986    0.91779   1.00
C3       0.52693    0.11688    0.89976   1.00
H1       0.50764    0.14454    0.90086   1.00
C2       0.58037    0.12973    0.91178   1.00
C2       0.15119    0.59268    0.84543   1.00
C3       0.15654    0.57856    0.86467   1.00
H1       0.19906    0.58850    0.86955   1.00
C3       0.08907    0.57936    0.83871   1.00
H1       0.08439    0.58979    0.82538   1.00
C3a      0.10166    0.54995    0.87765   1.00
H1       0.10542    0.54023    0.89113   1.00
C3b      0.03258    0.55087    0.85121   1.00
H1       -0.00962   0.54285    0.84661   1.00
C6       0.03865    0.53692    0.87106   1.00
C6       0.97857    0.50733    0.88467   1.00
C3c      0.96491    0.54926    0.89666   1.00
H1       0.99030    0.59631    0.89507   1.00
C3d      0.93791    0.43680    0.88525   1.00
H1       0.94599    0.40716    0.87756   1.00
C3       0.91017    0.51981    0.90993   1.00
H1       0.90014    0.54786    0.91779   1.00
C3       0.88312    0.41004    0.89976   1.00
H1       0.85546    0.36309    0.90086   1.00
C2       0.87027    0.45063    0.91178   1.00
C2       0.40732    0.55850    0.84543   1.00
C3       0.42144    0.57797    0.86467   1.00
H1       0.41150    0.61055    0.86955   1.00
C3       0.42064    0.50970    0.83871   1.00
H1       0.41021    0.49459    0.82538   1.00
C3a      0.45005    0.55170    0.87765   1.00
H1       0.45977    0.56518    0.89113   1.00
C3b      0.44913    0.48170    0.85121   1.00
H1       0.45715    0.44753    0.84661   1.00
C6       0.46308    0.50172    0.87106   1.00
C6       0.49267    0.47123    0.88467   1.00
C3c      0.45074    0.41564    0.89666   1.00
H1       0.40369    0.39397    0.89507   1.00
C3d      0.56320    0.50110    0.88525   1.00
H1       0.59284    0.53883    0.87756   1.00
C3       0.48019    0.39035    0.90993   1.00
H1       0.45214    0.35227    0.91779   1.00
C3       0.58996    0.47307    0.89976   1.00
H1       0.63691    0.49236    0.90086   1.00
C2       0.54937    0.41963    0.91178   1.00
C2       0.18215    0.10816    0.32123   1.00
C3       0.17680    0.08869    0.30199   1.00
H1       0.13428    0.05611    0.29711   1.00
C3       0.24427    0.15696    0.32795   1.00
H1       0.24895    0.17207    0.34128   1.00
C3a      0.23168    0.11496    0.28901   1.00
H1       0.22792    0.10148    0.27553   1.00
C3b      0.30076    0.18496    0.31545   1.00
H1       0.34296    0.21913    0.32005   1.00
C6       0.29469    0.16494    0.29560   1.00
C6       0.35477    0.19543    0.28199   1.00
C3c      0.36843    0.25102    0.27000   1.00
H1       0.34304    0.27269    0.27159   1.00
C3d      0.39543    0.16556    0.28141   1.00
H1       0.38735    0.12783    0.28910   1.00
C3       0.42317    0.27631    0.25673   1.00
H1       0.43320    0.31439    0.24887   1.00
C3       0.45022    0.19359    0.26690   1.00
H1       0.47788    0.17430    0.26580   1.00
C2       0.46307    0.24703    0.25488   1.00
C2       0.92602    0.81785    0.32123   1.00
C3       0.91190    0.82320    0.30199   1.00
H1       0.92184    0.86572    0.29711   1.00
C3       0.91270    0.75573    0.32795   1.00
H1       0.92313    0.75105    0.34128   1.00
C3a      0.88329    0.76832    0.28901   1.00
H1       0.87357    0.77208    0.27553   1.00
C3b      0.88421    0.69924    0.31545   1.00
H1       0.87619    0.65704    0.32005   1.00
C6       0.87026    0.70531    0.29560   1.00
C6       0.84067    0.64523    0.28199   1.00
C3c      0.88260    0.63157    0.27000   1.00
H1       0.92965    0.65696    0.27159   1.00
C3d      0.77014    0.60457    0.28141   1.00
H1       0.74050    0.61265    0.28910   1.00
C3       0.85315    0.57683    0.25673   1.00
H1       0.88120    0.56680    0.24887   1.00
C3       0.74338    0.54978    0.26690   1.00
H1       0.69643    0.52212    0.26580   1.00
C2       0.78397    0.53693    0.25488   1.00
C2       0.89184    0.07398    0.32123   1.00
C3       0.91131    0.08810    0.30199   1.00
H1       0.94389    0.07816    0.29711   1.00
C3       0.84304    0.08730    0.32795   1.00
H1       0.82793    0.07687    0.34128   1.00
C3a      0.88504    0.11671    0.28901   1.00
H1       0.89852    0.12643    0.27553   1.00
C3b      0.81504    0.11579    0.31545   1.00
H1       0.78087    0.12381    0.32005   1.00
C6       0.83506    0.12974    0.29560   1.00
C6       0.80457    0.15933    0.28199   1.00
C3c      0.74898    0.11740    0.27000   1.00
H1       0.72731    0.07035    0.27159   1.00
C3d      0.83444    0.22986    0.28141   1.00
H1       0.87217    0.25950    0.28910   1.00
C3       0.72369    0.14685    0.25673   1.00
H1       0.68561    0.11880    0.24887   1.00
C3       0.80641    0.25662    0.26690   1.00
H1       0.82570    0.30357    0.26580   1.00
C2       0.75297    0.21603    0.25488   1.00
C2       0.89184    0.81785    0.82123   1.00
C3       0.91131    0.82320    0.80199   1.00
H1       0.94389    0.86572    0.79711   1.00
C3       0.84304    0.75573    0.82795   1.00
H1       0.82793    0.75105    0.84128   1.00
C3a      0.88504    0.76832    0.78901   1.00
H1       0.89852    0.77208    0.77553   1.00
C3b      0.81504    0.69924    0.81545   1.00
H1       0.78087    0.65704    0.82005   1.00
C6       0.83506    0.70531    0.79560   1.00
C6       0.80457    0.64523    0.78199   1.00
C3c      0.74898    0.63157    0.77000   1.00
H1       0.72731    0.65696    0.77159   1.00
C3d      0.83444    0.60457    0.78141   1.00
H1       0.87217    0.61265    0.78910   1.00
C3       0.72369    0.57683    0.75673   1.00
H1       0.68561    0.56680    0.74887   1.00
C3       0.80641    0.54978    0.76690   1.00
H1       0.82570    0.52212    0.76580   1.00
C2       0.75297    0.53693    0.75488   1.00
C2       0.18215    0.07398    0.82123   1.00
C3       0.17680    0.08810    0.80199   1.00
H1       0.13428    0.07816    0.79711   1.00
C3       0.24427    0.08730    0.82795   1.00
H1       0.24895    0.07687    0.84128   1.00
C3a      0.23168    0.11671    0.78901   1.00
H1       0.22792    0.12643    0.77553   1.00
C3b      0.30076    0.11579    0.81545   1.00
H1       0.34296    0.12381    0.82005   1.00
C6       0.29469    0.12974    0.79560   1.00
C6       0.35477    0.15933    0.78199   1.00
C3c      0.36843    0.11740    0.77000   1.00
H1       0.34304    0.07035    0.77159   1.00
C3d      0.39543    0.22986    0.78141   1.00
H1       0.38735    0.25950    0.78910   1.00
C3       0.42317    0.14685    0.75673   1.00
H1       0.43320    0.11880    0.74887   1.00
C3       0.45022    0.25662    0.76690   1.00
H1       0.47788    0.30357    0.76580   1.00
C2       0.46307    0.21603    0.75488   1.00
C2       0.92602    0.10816    0.82123   1.00
C3       0.91190    0.08869    0.80199   1.00
H1       0.92184    0.05611    0.79711   1.00
C3       0.91270    0.15696    0.82795   1.00
H1       0.92313    0.17207    0.84128   1.00
C3a      0.88329    0.11496    0.78901   1.00
H1       0.87357    0.10148    0.77553   1.00
C3b      0.88421    0.18496    0.81545   1.00
H1       0.87619    0.21913    0.82005   1.00
C6       0.87026    0.16494    0.79560   1.00
C6       0.84067    0.19543    0.78199   1.00
C3c      0.88260    0.25102    0.77000   1.00
H1       0.92965    0.27269    0.77159   1.00
C3d      0.77014    0.16556    0.78141   1.00
H1       0.74050    0.12783    0.78910   1.00
C3       0.85315    0.27631    0.75673   1.00
H1       0.88120    0.31439    0.74887   1.00
C3       0.74338    0.19359    0.76690   1.00
H1       0.69643    0.17430    0.76580   1.00
C2       0.78397    0.24703    0.75488   1.00
C2       0.15119    0.55850    0.34543   1.00
C3       0.15654    0.57797    0.36467   1.00
H1       0.19906    0.61055    0.36955   1.00
C3       0.08907    0.50970    0.33871   1.00
H1       0.08439    0.49459    0.32538   1.00
C3a      0.10166    0.55170    0.37765   1.00
H1       0.10542    0.56518    0.39113   1.00
C3b      0.03258    0.48170    0.35121   1.00
H1       -0.00962   0.44753    0.34661   1.00
C6       0.03865    0.50172    0.37106   1.00
C6       0.97857    0.47123    0.38467   1.00
C3c      0.96491    0.41564    0.39666   1.00
H1       0.99030    0.39397    0.39507   1.00
C3d      0.93791    0.50110    0.38525   1.00
H1       0.94599    0.53883    0.37756   1.00
C3       0.91017    0.39035    0.40993   1.00
H1       0.90014    0.35227    0.41779   1.00
C3       0.88312    0.47307    0.39976   1.00
H1       0.85546    0.49236    0.40086   1.00
C2       0.87027    0.41963    0.41178   1.00
C2       0.40732    0.84881    0.34543   1.00
C3       0.42144    0.84346    0.36467   1.00
H1       0.41150    0.80094    0.36955   1.00
C3       0.42064    0.91093    0.33871   1.00
H1       0.41021    0.91561    0.32538   1.00
C3a      0.45005    0.89834    0.37765   1.00
H1       0.45977    0.89458    0.39113   1.00
C3b      0.44913    0.96742    0.35121   1.00
H1       0.45715    1.00962    0.34661   1.00
C6       0.46308    0.96135    0.37106   1.00
C6       0.49267    0.02143    0.38467   1.00
C3c      0.45074    0.03509    0.39666   1.00
H1       0.40369    0.00970    0.39507   1.00
C3d      0.56320    0.06209    0.38525   1.00
H1       0.59284    0.05401    0.37756   1.00
C3       0.48019    0.08983    0.40993   1.00
H1       0.45214    0.09986    0.41779   1.00
C3       0.58996    0.11688    0.39976   1.00
H1       0.63691    0.14454    0.40086   1.00
C2       0.54937    0.12973    0.41178   1.00
C2       0.44150    0.59268    0.34543   1.00
C3       0.42203    0.57856    0.36467   1.00
H1       0.38945    0.58850    0.36955   1.00
C3       0.49030    0.57936    0.33871   1.00
H1       0.50541    0.58979    0.32538   1.00
C3a      0.44830    0.54995    0.37765   1.00
H1       0.43482    0.54023    0.39113   1.00
C3b      0.51830    0.55087    0.35121   1.00
H1       0.55247    0.54285    0.34661   1.00
C6       0.49828    0.53692    0.37106   1.00
C6       0.52877    0.50733    0.38467   1.00
C3c      0.58436    0.54926    0.39666   1.00
H1       0.60603    0.59631    0.39507   1.00
C3d      0.49890    0.43680    0.38525   1.00
H1       0.46117    0.40716    0.37756   1.00
C3       0.60965    0.51981    0.40993   1.00
H1       0.64773    0.54786    0.41779   1.00
C3       0.52693    0.41004    0.39976   1.00
H1       0.50764    0.36309    0.40086   1.00
C2       0.58037    0.45063    0.41178   1.00
C2       0.10816    0.18215    0.17877   1.00
C3       0.08869    0.17680    0.19801   1.00
H1       0.05611    0.13428    0.20289   1.00
C3       0.15696    0.24427    0.17205   1.00
H1       0.17207    0.24895    0.15872   1.00
C3a      0.11496    0.23168    0.21099   1.00
H1       0.10148    0.22792    0.22447   1.00
C3b      0.18496    0.30076    0.18455   1.00
H1       0.21913    0.34296    0.17995   1.00
C6       0.16494    0.29469    0.20440   1.00
C6       0.19543    0.35477    0.21801   1.00
C3c      0.25102    0.36843    0.23000   1.00
H1       0.27269    0.34304    0.22841   1.00
C3d      0.16556    0.39543    0.21859   1.00
H1       0.12783    0.38735    0.21090   1.00
C3       0.27631    0.42317    0.24327   1.00
H1       0.31439    0.43320    0.25113   1.00
C3       0.19359    0.45022    0.23310   1.00
H1       0.17430    0.47788    0.23420   1.00
C2       0.24703    0.46307    0.24512   1.00
C2       0.81785    0.92602    0.17877   1.00
C3       0.82320    0.91190    0.19801   1.00
H1       0.86572    0.92184    0.20289   1.00
C3       0.75573    0.91270    0.17205   1.00
H1       0.75105    0.92313    0.15872   1.00
C3a      0.76832    0.88329    0.21099   1.00
H1       0.77208    0.87357    0.22447   1.00
C3b      0.69924    0.88421    0.18455   1.00
H1       0.65704    0.87619    0.17995   1.00
C6       0.70531    0.87026    0.20440   1.00
C6       0.64523    0.84067    0.21801   1.00
C3c      0.63157    0.88260    0.23000   1.00
H1       0.65696    0.92965    0.22841   1.00
C3d      0.60457    0.77014    0.21859   1.00
H1       0.61265    0.74050    0.21090   1.00
C3       0.57683    0.85315    0.24327   1.00
H1       0.56680    0.88120    0.25113   1.00
C3       0.54978    0.74338    0.23310   1.00
H1       0.52212    0.69643    0.23420   1.00
C2       0.53693    0.78397    0.24512   1.00
C2       0.07398    0.89184    0.17877   1.00
C3       0.08810    0.91131    0.19801   1.00
H1       0.07816    0.94389    0.20289   1.00
C3       0.08730    0.84304    0.17205   1.00
H1       0.07687    0.82793    0.15872   1.00
C3a      0.11671    0.88504    0.21099   1.00
H1       0.12643    0.89852    0.22447   1.00
C3b      0.11579    0.81504    0.18455   1.00
H1       0.12381    0.78087    0.17995   1.00
C6       0.12974    0.83506    0.20440   1.00
C6       0.15933    0.80457    0.21801   1.00
C3c      0.11740    0.74898    0.23000   1.00
H1       0.07035    0.72731    0.22841   1.00
C3d      0.22986    0.83444    0.21859   1.00
H1       0.25950    0.87217    0.21090   1.00
C3       0.14685    0.72369    0.24327   1.00
H1       0.11880    0.68561    0.25113   1.00
C3       0.25662    0.80641    0.23310   1.00
H1       0.30357    0.82570    0.23420   1.00
C2       0.21603    0.75297    0.24512   1.00
C2       0.84881    0.44150    0.65457   1.00
C3       0.84346    0.42203    0.63533   1.00
H1       0.80094    0.38945    0.63045   1.00
C3       0.91093    0.49030    0.66129   1.00
H1       0.91561    0.50541    0.67462   1.00
C3a      0.89834    0.44830    0.62235   1.00
H1       0.89458    0.43482    0.60887   1.00
C3b      0.96742    0.51830    0.64879   1.00
H1       1.00962    0.55247    0.65339   1.00
C6       0.96135    0.49828    0.62894   1.00
C6       0.02143    0.52877    0.61533   1.00
C3c      0.03509    0.58436    0.60334   1.00
H1       0.00970    0.60603    0.60493   1.00
C3d      0.06209    0.49890    0.61475   1.00
H1       0.05401    0.46117    0.62244   1.00
C3       0.08983    0.60965    0.59007   1.00
H1       0.09986    0.64773    0.58221   1.00
C3       0.11688    0.52693    0.60024   1.00
H1       0.14454    0.50764    0.59914   1.00
C2       0.12973    0.58037    0.58822   1.00
C2       0.59268    0.15119    0.65457   1.00
C3       0.57856    0.15654    0.63533   1.00
H1       0.58850    0.19906    0.63045   1.00
C3       0.57936    0.08907    0.66129   1.00
H1       0.58979    0.08439    0.67462   1.00
C3a      0.54995    0.10166    0.62235   1.00
H1       0.54023    0.10542    0.60887   1.00
C3b      0.55087    0.03258    0.64879   1.00
H1       0.54285    -0.00962   0.65339   1.00
C6       0.53692    0.03865    0.62894   1.00
C6       0.50733    0.97857    0.61533   1.00
C3c      0.54926    0.96491    0.60334   1.00
H1       0.59631    0.99030    0.60493   1.00
C3d      0.43680    0.93791    0.61475   1.00
H1       0.40716    0.94599    0.62244   1.00
C3       0.51981    0.91017    0.59007   1.00
H1       0.54786    0.90014    0.58221   1.00
C3       0.41004    0.88312    0.60024   1.00
H1       0.36309    0.85546    0.59914   1.00
C2       0.45063    0.87027    0.58822   1.00
C2       0.55850    0.40732    0.65457   1.00
C3       0.57797    0.42144    0.63533   1.00
H1       0.61055    0.41150    0.63045   1.00
C3       0.50970    0.42064    0.66129   1.00
H1       0.49459    0.41021    0.67462   1.00
C3a      0.55170    0.45005    0.62235   1.00
H1       0.56518    0.45977    0.60887   1.00
C3b      0.48170    0.44913    0.64879   1.00
H1       0.44753    0.45715    0.65339   1.00
C6       0.50172    0.46308    0.62894   1.00
C6       0.47123    0.49267    0.61533   1.00
C3c      0.41564    0.45074    0.60334   1.00
H1       0.39397    0.40369    0.60493   1.00
C3d      0.50110    0.56320    0.61475   1.00
H1       0.53883    0.59284    0.62244   1.00
C3       0.39035    0.48019    0.59007   1.00
H1       0.35227    0.45214    0.58221   1.00
C3       0.47307    0.58996    0.60024   1.00
H1       0.49236    0.63691    0.59914   1.00
C2       0.41963    0.54937    0.58822   1.00
C2       0.55850    0.15119    0.15457   1.00
C3       0.57797    0.15654    0.13533   1.00
H1       0.61055    0.19906    0.13045   1.00
C3       0.50970    0.08907    0.16129   1.00
H1       0.49459    0.08439    0.17462   1.00
C3a      0.55170    0.10166    0.12235   1.00
H1       0.56518    0.10542    0.10887   1.00
C3b      0.48170    0.03258    0.14879   1.00
H1       0.44753    -0.00962   0.15339   1.00
C6       0.50172    0.03865    0.12894   1.00
C6       0.47123    0.97857    0.11533   1.00
C3c      0.41564    0.96491    0.10334   1.00
H1       0.39397    0.99030    0.10493   1.00
C3d      0.50110    0.93791    0.11475   1.00
H1       0.53883    0.94599    0.12244   1.00
C3       0.39035    0.91017    0.09007   1.00
H1       0.35227    0.90014    0.08221   1.00
C3       0.47307    0.88312    0.10024   1.00
H1       0.49236    0.85546    0.09914   1.00
C2       0.41963    0.87027    0.08822   1.00
C2       0.84881    0.40732    0.15457   1.00
C3       0.84346    0.42144    0.13533   1.00
H1       0.80094    0.41150    0.13045   1.00
C3       0.91093    0.42064    0.16129   1.00
H1       0.91561    0.41021    0.17462   1.00
C3a      0.89834    0.45005    0.12235   1.00
H1       0.89458    0.45977    0.10887   1.00
C3b      0.96742    0.44913    0.14879   1.00
H1       1.00962    0.45715    0.15339   1.00
C6       0.96135    0.46308    0.12894   1.00
C6       0.02143    0.49267    0.11533   1.00
C3c      0.03509    0.45074    0.10334   1.00
H1       0.00970    0.40369    0.10493   1.00
C3d      0.06209    0.56320    0.11475   1.00
H1       0.05401    0.59284    0.12244   1.00
C3       0.08983    0.48019    0.09007   1.00
H1       0.09986    0.45214    0.08221   1.00
C3       0.11688    0.58996    0.10024   1.00
H1       0.14454    0.63691    0.09914   1.00
C2       0.12973    0.54937    0.08822   1.00
C2       0.59268    0.44150    0.15457   1.00
C3       0.57856    0.42203    0.13533   1.00
H1       0.58850    0.38945    0.13045   1.00
C3       0.57936    0.49030    0.16129   1.00
H1       0.58979    0.50541    0.17462   1.00
C3a      0.54995    0.44830    0.12235   1.00
H1       0.54023    0.43482    0.10887   1.00
C3b      0.55087    0.51830    0.14879   1.00
H1       0.54285    0.55247    0.15339   1.00
C6       0.53692    0.49828    0.12894   1.00
C6       0.50733    0.52877    0.11533   1.00
C3c      0.54926    0.58436    0.10334   1.00
H1       0.59631    0.60603    0.10493   1.00
C3d      0.43680    0.49890    0.11475   1.00
H1       0.40716    0.46117    0.12244   1.00
C3       0.51981    0.60965    0.09007   1.00
H1       0.54786    0.64773    0.08221   1.00
C3       0.41004    0.52693    0.10024   1.00
H1       0.36309    0.50764    0.09914   1.00
C2       0.45063    0.58037    0.08822   1.00
C2       0.81785    0.89184    0.67877   1.00
C3       0.82320    0.91131    0.69801   1.00
H1       0.86572    0.94389    0.70289   1.00
C3       0.75573    0.84304    0.67205   1.00
H1       0.75105    0.82793    0.65872   1.00
C3a      0.76832    0.88504    0.71099   1.00
H1       0.77208    0.89852    0.72447   1.00
C3b      0.69924    0.81504    0.68455   1.00
H1       0.65704    0.78087    0.67995   1.00
C6       0.70531    0.83506    0.70440   1.00
C6       0.64523    0.80457    0.71801   1.00
C3c      0.63157    0.74898    0.73000   1.00
H1       0.65696    0.72731    0.72841   1.00
C3d      0.60457    0.83444    0.71859   1.00
H1       0.61265    0.87217    0.71090   1.00
C3       0.57683    0.72369    0.74327   1.00
H1       0.56680    0.68561    0.75113   1.00
C3       0.54978    0.80641    0.73310   1.00
H1       0.52212    0.82570    0.73420   1.00
C2       0.53693    0.75297    0.74512   1.00
C2       0.07398    0.18215    0.67877   1.00
C3       0.08810    0.17680    0.69801   1.00
H1       0.07816    0.13428    0.70289   1.00
C3       0.08730    0.24427    0.67205   1.00
H1       0.07687    0.24895    0.65872   1.00
C3a      0.11671    0.23168    0.71099   1.00
H1       0.12643    0.22792    0.72447   1.00
C3b      0.11579    0.30076    0.68455   1.00
H1       0.12381    0.34296    0.67995   1.00
C6       0.12974    0.29469    0.70440   1.00
C6       0.15933    0.35477    0.71801   1.00
C3c      0.11740    0.36843    0.73000   1.00
H1       0.07035    0.34304    0.72841   1.00
C3d      0.22986    0.39543    0.71859   1.00
H1       0.25950    0.38735    0.71090   1.00
C3       0.14685    0.42317    0.74327   1.00
H1       0.11880    0.43320    0.75113   1.00
C3       0.25662    0.45022    0.73310   1.00
H1       0.30357    0.47788    0.73420   1.00
C2       0.21603    0.46307    0.74512   1.00
C2       0.10816    0.92602    0.67877   1.00
C3       0.08869    0.91190    0.69801   1.00
H1       0.05611    0.92184    0.70289   1.00
C3       0.15696    0.91270    0.67205   1.00
H1       0.17207    0.92313    0.65872   1.00
C3a      0.11496    0.88329    0.71099   1.00
H1       0.10148    0.87357    0.72447   1.00
C3b      0.18496    0.88421    0.68455   1.00
H1       0.21913    0.87619    0.67995   1.00
C6       0.16494    0.87026    0.70440   1.00
C6       0.19543    0.84067    0.71801   1.00
C3c      0.25102    0.88260    0.73000   1.00
H1       0.27269    0.92965    0.72841   1.00
C3d      0.16556    0.77014    0.71859   1.00
H1       0.12783    0.74050    0.71090   1.00
C3       0.27631    0.85315    0.74327   1.00
H1       0.31439    0.88120    0.75113   1.00
C3       0.19359    0.74338    0.73310   1.00
H1       0.17430    0.69643    0.73420   1.00
C2       0.24703    0.78397    0.74512   1.00
