data_IRMOF10_interpen_symm_ligand2lp_label_c.

_audit_creation_method             'generated by an auxiliary program of Tobunporous'

_symmetry_space_group_name_H-M     'P 1'
_symmetry_Int_Tables_number        1
_symmetry_cell_setting             triclinic

_cell_length_a                    22.6523
_cell_length_b                    22.6523
_cell_length_c                    65.9502
_cell_angle_alpha                 90.0000
_cell_angle_beta                  90.0000
_cell_angle_gamma                 120.0000

loop_
_atom_site_label
_atom_site_fract_x
_atom_site_fract_y
_atom_site_fract_z
_atom_site_occupancy
O1       0.00000    -0.00000   0.62500   1.00
Zn      0.00000    -0.00000   0.59589   1.00
Zn      0.94848    1.04288    0.63392   1.00
Zn      0.09439    0.05152    0.63392   1.00
Zn      -0.04288   0.90561    0.63392   1.00
O2       0.93860    0.02610    0.58587   1.00
O2       0.08750    0.06140    0.58587   1.00
O2       -0.02610   0.91250    0.58587   1.00
O2       0.91305    0.07161    0.61181   1.00
O2       0.00462    0.12022    0.65110   1.00
O2       0.87413    0.98074    0.65071   1.00
O2       0.15856    0.08695    0.61181   1.00
O2       0.10660    0.12587    0.65071   1.00
O2       0.11559    0.99538    0.65110   1.00
O2       -0.07161   0.84144    0.61181   1.00
O2       0.87978    0.88441    0.65110   1.00
O2       0.01926    0.89340    0.65071   1.00
C1       0.91390    0.06020    0.59358   1.00
C1       0.14630    0.08610    0.59358   1.00
C1       -0.06020   0.85370    0.59358   1.00
C1       0.06663    0.14397    0.65673   1.00
C1       0.85603    0.92267    0.65673   1.00
C1       0.07733    0.93337    0.65673   1.00
O1       -0.00000   0.00000    0.87500   1.00
Zn      -0.00000   0.00000    0.90411   1.00
Zn      1.04288    0.94848    0.86608   1.00
Zn      0.05152    0.09439    0.86608   1.00
Zn      0.90561    -0.04288   0.86608   1.00
O2       0.02610    0.93860    0.91413   1.00
O2       0.06140    0.08750    0.91413   1.00
O2       0.91250    -0.02610   0.91413   1.00
O2       0.07161    0.91305    0.88819   1.00
O2       0.12022    0.00462    0.84890   1.00
O2       0.98074    0.87413    0.84929   1.00
O2       0.08695    0.15856    0.88819   1.00
O2       0.12587    0.10660    0.84929   1.00
O2       0.99538    0.11559    0.84890   1.00
O2       0.84144    -0.07161   0.88819   1.00
O2       0.88441    0.87978    0.84890   1.00
O2       0.89340    0.01926    0.84929   1.00
C1       0.06020    0.91390    0.90642   1.00
C1       0.08610    0.14630    0.90642   1.00
C1       0.85370    -0.06020   0.90642   1.00
C1       0.14397    0.06663    0.84327   1.00
C1       0.92267    0.85603    0.84327   1.00
C1       0.93337    0.07733    0.84327   1.00
O1       0.00000    0.00000    0.37500   1.00
Zn      0.00000    0.00000    0.40411   1.00
Zn      0.05152    -0.04288   0.36608   1.00
Zn      0.90561    0.94848    0.36608   1.00
Zn      1.04288    0.09439    0.36608   1.00
O2       0.06140    -0.02610   0.41413   1.00
O2       0.91250    0.93860    0.41413   1.00
O2       0.02610    0.08750    0.41413   1.00
O2       0.08695    -0.07161   0.38819   1.00
O2       0.99538    0.87978    0.34890   1.00
O2       0.12587    0.01926    0.34929   1.00
O2       0.84144    0.91305    0.38819   1.00
O2       0.89340    0.87413    0.34929   1.00
O2       0.88441    0.00462    0.34890   1.00
O2       0.07161    0.15856    0.38819   1.00
O2       0.12022    0.11559    0.34890   1.00
O2       0.98074    0.10660    0.34929   1.00
C1       0.08610    -0.06020   0.40642   1.00
C1       0.85370    0.91390    0.40642   1.00
C1       0.06020    0.14630    0.40642   1.00
C1       0.93337    0.85603    0.34327   1.00
C1       0.14397    0.07733    0.34327   1.00
C1       0.92267    0.06663    0.34327   1.00
O1       0.00000    0.00000    0.12500   1.00
Zn      0.00000    0.00000    0.09589   1.00
Zn      -0.04288   0.05152    0.13392   1.00
Zn      0.94848    0.90561    0.13392   1.00
Zn      0.09439    1.04288    0.13392   1.00
O2       -0.02610   0.06140    0.08587   1.00
O2       0.93860    0.91250    0.08587   1.00
O2       0.08750    0.02610    0.08587   1.00
O2       -0.07161   0.08695    0.11181   1.00
O2       0.87978    0.99538    0.15110   1.00
O2       0.01926    0.12587    0.15071   1.00
O2       0.91305    0.84144    0.11181   1.00
O2       0.87413    0.89340    0.15071   1.00
O2       0.00462    0.88441    0.15110   1.00
O2       0.15856    0.07161    0.11181   1.00
O2       0.11559    0.12022    0.15110   1.00
O2       0.10660    0.98074    0.15071   1.00
C1       -0.06020   0.08610    0.09358   1.00
C1       0.91390    0.85370    0.09358   1.00
C1       0.14630    0.06020    0.09358   1.00
C1       0.85603    0.93337    0.15673   1.00
C1       0.07733    0.14397    0.15673   1.00
C1       0.06663    0.92267    0.15673   1.00
O1       0.66667    0.33333    0.95833   1.00
Zn      0.66667    0.33333    0.92922   1.00
Zn      0.61515    0.37621    0.96725   1.00
Zn      0.76106    0.38485    0.96725   1.00
Zn      -0.37621   0.23894    0.96725   1.00
O2       0.60527    0.35943    0.91920   1.00
O2       0.75417    0.39473    0.91920   1.00
O2       0.64057    0.24583    0.91920   1.00
O2       0.57972    0.40494    0.94514   1.00
O2       0.67129    0.45355    0.98443   1.00
O2       0.54080    0.31407    0.98404   1.00
O2       0.82523    0.42028    0.94514   1.00
O2       0.77327    0.45920    0.98404   1.00
O2       -0.21774   0.32871    0.98443   1.00
O2       0.59506    0.17477    0.94514   1.00
O2       0.54645    0.21774    0.98443   1.00
O2       -0.31407   0.22673    0.98404   1.00
C1       0.58057    0.39353    0.92691   1.00
C1       0.81297    0.41943    0.92691   1.00
C1       0.60647    0.18703    0.92691   1.00
C1       0.73330    0.47730    0.99006   1.00
C1       0.52270    0.25600    0.99006   1.00
C1       -0.25600   0.26670    0.99006   1.00
O1       0.66667    0.33333    0.20833   1.00
Zn      0.66667    0.33333    0.23744   1.00
Zn      0.70954    0.28182    0.19942   1.00
Zn      0.71818    0.42773    0.19942   1.00
Zn      0.57227    0.29046    0.19942   1.00
O2       0.69277    0.27193    0.24746   1.00
O2       0.72807    0.42083    0.24746   1.00
O2       0.57917    0.30723    0.24746   1.00
O2       0.73828    0.24638    0.22152   1.00
O2       0.78688    0.33796    0.18224   1.00
O2       0.64740    0.20747    0.18263   1.00
O2       0.75362    0.49189    0.22152   1.00
O2       0.79253    0.43994    0.18263   1.00
O2       0.66204    0.44893    0.18224   1.00
O2       0.50811    0.26172    0.22152   1.00
O2       0.55107    0.21312    0.18224   1.00
O2       0.56006    0.35260    0.18263   1.00
C1       0.72687    0.24723    0.23975   1.00
C1       0.75277    0.47963    0.23975   1.00
C1       0.52037    0.27313    0.23975   1.00
C1       0.81063    0.39997    0.17661   1.00
C1       0.58933    0.18937    0.17661   1.00
C1       0.60003    0.41067    0.17661   1.00
O1       0.66667    0.33333    0.70833   1.00
Zn      0.66667    0.33333    0.73744   1.00
Zn      0.71818    0.29046    0.69942   1.00
Zn      0.57227    0.28182    0.69942   1.00
Zn      0.70954    0.42773    0.69942   1.00
O2       0.72807    0.30723    0.74746   1.00
O2       0.57917    0.27193    0.74746   1.00
O2       0.69277    0.42083    0.74746   1.00
O2       0.75362    0.26172    0.72152   1.00
O2       0.66204    0.21312    0.68224   1.00
O2       0.79253    0.35260    0.68263   1.00
O2       0.50811    0.24638    0.72152   1.00
O2       0.56006    0.20747    0.68263   1.00
O2       0.55107    0.33796    0.68224   1.00
O2       0.73828    0.49189    0.72152   1.00
O2       0.78688    0.44893    0.68224   1.00
O2       0.64740    0.43994    0.68263   1.00
C1       0.75277    0.27313    0.73975   1.00
C1       0.52037    0.24723    0.73975   1.00
C1       0.72687    0.47963    0.73975   1.00
C1       0.60003    0.18937    0.67661   1.00
C1       0.81063    0.41067    0.67661   1.00
C1       0.58933    0.39997    0.67661   1.00
O1       0.66667    0.33333    0.45833   1.00
Zn      0.66667    0.33333    0.42922   1.00
Zn      -0.37621   0.38485    0.46725   1.00
Zn      0.61515    0.23894    0.46725   1.00
Zn      0.76106    0.37621    0.46725   1.00
O2       0.64057    0.39473    0.41920   1.00
O2       0.60527    0.24583    0.41920   1.00
O2       0.75417    0.35943    0.41920   1.00
O2       0.59506    0.42028    0.44514   1.00
O2       0.54645    0.32871    0.48443   1.00
O2       -0.31407   0.45920    0.48404   1.00
O2       0.57972    0.17477    0.44514   1.00
O2       0.54080    0.22673    0.48404   1.00
O2       0.67129    0.21774    0.48443   1.00
O2       0.82523    0.40494    0.44514   1.00
O2       -0.21774   0.45355    0.48443   1.00
O2       0.77327    0.31407    0.48404   1.00
C1       0.60647    0.41943    0.42691   1.00
C1       0.58057    0.18703    0.42691   1.00
C1       0.81297    0.39353    0.42691   1.00
C1       0.52270    0.26670    0.49006   1.00
C1       -0.25600   0.47730    0.49006   1.00
C1       0.73330    0.25600    0.49006   1.00
O1       0.33333    0.66667    0.29167   1.00
Zn      0.33333    0.66667    0.26256   1.00
Zn      0.28182    0.70954    0.30058   1.00
Zn      0.42773    0.71818    0.30058   1.00
Zn      0.29046    0.57227    0.30058   1.00
O2       0.27193    0.69277    0.25254   1.00
O2       0.42083    0.72807    0.25254   1.00
O2       0.30723    0.57917    0.25254   1.00
O2       0.24638    0.73828    0.27848   1.00
O2       0.33796    0.78688    0.31776   1.00
O2       0.20747    0.64740    0.31737   1.00
O2       0.49189    0.75362    0.27848   1.00
O2       0.43994    0.79253    0.31737   1.00
O2       0.44893    0.66204    0.31776   1.00
O2       0.26172    0.50811    0.27848   1.00
O2       0.21312    0.55107    0.31776   1.00
O2       0.35260    0.56006    0.31737   1.00
C1       0.24723    0.72687    0.26025   1.00
C1       0.47963    0.75277    0.26025   1.00
C1       0.27313    0.52037    0.26025   1.00
C1       0.39997    0.81063    0.32339   1.00
C1       0.18937    0.58933    0.32339   1.00
C1       0.41067    0.60003    0.32339   1.00
O1       0.33333    0.66667    0.54167   1.00
Zn      0.33333    0.66667    0.57078   1.00
Zn      0.37621    0.61515    0.53275   1.00
Zn      0.38485    0.76106    0.53275   1.00
Zn      0.23894    -0.37621   0.53275   1.00
O2       0.35943    0.60527    0.58080   1.00
O2       0.39473    0.75417    0.58080   1.00
O2       0.24583    0.64057    0.58080   1.00
O2       0.40494    0.57972    0.55486   1.00
O2       0.45355    0.67129    0.51557   1.00
O2       0.31407    0.54080    0.51596   1.00
O2       0.42028    0.82523    0.55486   1.00
O2       0.45920    0.77327    0.51596   1.00
O2       0.32871    -0.21774   0.51557   1.00
O2       0.17477    0.59506    0.55486   1.00
O2       0.21774    0.54645    0.51557   1.00
O2       0.22673    -0.31407   0.51596   1.00
C1       0.39353    0.58057    0.57309   1.00
C1       0.41943    0.81297    0.57309   1.00
C1       0.18703    0.60647    0.57309   1.00
C1       0.47730    0.73330    0.50994   1.00
C1       0.25600    0.52270    0.50994   1.00
C1       0.26670    -0.25600   0.50994   1.00
O1       0.33333    0.66667    0.04167   1.00
Zn      0.33333    0.66667    0.07078   1.00
Zn      0.38485    -0.37621   0.03275   1.00
Zn      0.23894    0.61515    0.03275   1.00
Zn      0.37621    0.76106    0.03275   1.00
O2       0.39473    0.64057    0.08080   1.00
O2       0.24583    0.60527    0.08080   1.00
O2       0.35943    0.75417    0.08080   1.00
O2       0.42028    0.59506    0.05486   1.00
O2       0.32871    0.54645    0.01557   1.00
O2       0.45920    -0.31407   0.01596   1.00
O2       0.17477    0.57972    0.05486   1.00
O2       0.22673    0.54080    0.01596   1.00
O2       0.21774    0.67129    0.01557   1.00
O2       0.40494    0.82523    0.05486   1.00
O2       0.45355    -0.21774   0.01557   1.00
O2       0.31407    0.77327    0.01596   1.00
C1       0.41943    0.60647    0.07309   1.00
C1       0.18703    0.58057    0.07309   1.00
C1       0.39353    0.81297    0.07309   1.00
C1       0.26670    0.52270    0.00994   1.00
C1       0.47730    -0.25600   0.00994   1.00
C1       0.25600    0.73330    0.00994   1.00
O1       0.33333    0.66667    0.79167   1.00
Zn      0.33333    0.66667    0.76256   1.00
Zn      0.29046    0.71818    0.80058   1.00
Zn      0.28182    0.57227    0.80058   1.00
Zn      0.42773    0.70954    0.80058   1.00
O2       0.30723    0.72807    0.75254   1.00
O2       0.27193    0.57917    0.75254   1.00
O2       0.42083    0.69277    0.75254   1.00
O2       0.26172    0.75362    0.77848   1.00
O2       0.21312    0.66204    0.81776   1.00
O2       0.35260    0.79253    0.81737   1.00
O2       0.24638    0.50811    0.77848   1.00
O2       0.20747    0.56006    0.81737   1.00
O2       0.33796    0.55107    0.81776   1.00
O2       0.49189    0.73828    0.77848   1.00
O2       0.44893    0.78688    0.81776   1.00
O2       0.43994    0.64740    0.81737   1.00
C1       0.27313    0.75277    0.76025   1.00
C1       0.24723    0.52037    0.76025   1.00
C1       0.47963    0.72687    0.76025   1.00
C1       0.18937    0.60003    0.82339   1.00
C1       0.41067    0.81063    0.82339   1.00
C1       0.39997    0.58933    0.82339   1.00
C2       -0.22804   0.51784    0.51123   1.00
C3       -0.25668   0.51637    0.52894   1.00
H1       -0.29642   0.47686    0.53265   1.00
C3       -0.16918   0.57533    0.50630   1.00
H1       -0.14774   0.57708    0.49411   1.00
C3a      -0.22974   0.57095    0.54204   1.00
H1       -0.24966   0.56987    0.55447   1.00
C3b      -0.14015   0.63132    0.51900   1.00
H1       -0.09925   0.67016    0.51570   1.00
C6       -0.16974   0.62918    0.53730   1.00
C6       -0.13841   0.68859    0.55116   1.00
C3c      -0.09408   0.69260    0.56625   1.00
H1       -0.07969   0.66071    0.56676   1.00
C3d      -0.15619   0.73866    0.54873   1.00
H1       -0.18630   0.73723    0.53889   1.00
C3       -0.06817   0.74724    0.57957   1.00
H1       -0.03746   0.75071    0.58955   1.00
C3       -0.12860   0.79283    0.56344   1.00
H1       -0.14018   0.82670    0.56256   1.00
C2       -0.08630   0.79640    0.57845   1.00
C2       0.48216    0.25412    0.51123   1.00
C3       0.48363    0.22695    0.52894   1.00
H1       0.52314    0.22672    0.53265   1.00
C3       0.42467    0.25549    0.50630   1.00
H1       0.42292    0.27518    0.49411   1.00
C3a      0.42905    0.19931    0.54204   1.00
H1       0.43013    0.18046    0.55447   1.00
C3b      0.36868    0.22853    0.51900   1.00
H1       0.32984    0.23059    0.51570   1.00
C6       0.37082    0.20108    0.53730   1.00
C6       0.31141    0.17300    0.55116   1.00
C3c      0.30740    0.21332    0.56625   1.00
H1       0.33929    0.25961    0.56676   1.00
C3d      0.26134    0.10515    0.54873   1.00
H1       0.26277    0.07647    0.53889   1.00
C3       0.25276    0.18459    0.57957   1.00
H1       0.24929    0.21183    0.58955   1.00
C3       0.20717    0.07857    0.56344   1.00
H1       0.17330    0.03312    0.56256   1.00
C2       0.20360    0.11730    0.57845   1.00
C2       0.74588    0.22804    0.51123   1.00
C3       0.77305    0.25668    0.52894   1.00
H1       0.77328    0.29642    0.53265   1.00
C3       0.74451    0.16918    0.50630   1.00
H1       0.72482    0.14774    0.49411   1.00
C3a      0.80069    0.22974    0.54204   1.00
H1       0.81954    0.24966    0.55447   1.00
C3b      0.77147    0.14015    0.51900   1.00
H1       0.76941    0.09925    0.51570   1.00
C6       0.79892    0.16974    0.53730   1.00
C6       0.82700    0.13841    0.55116   1.00
C3c      0.78668    0.09408    0.56625   1.00
H1       0.74039    0.07969    0.56676   1.00
C3d      0.89485    0.15619    0.54873   1.00
H1       0.92353    0.18630    0.53889   1.00
C3       0.81541    0.06817    0.57957   1.00
H1       0.78817    0.03746    0.58955   1.00
C3       0.92143    0.12860    0.56344   1.00
H1       0.96688    0.14018    0.56256   1.00
C2       0.88270    0.08630    0.57845   1.00
C2       0.51784    -0.22804   0.98877   1.00
C3       0.51637    -0.25668   0.97106   1.00
H1       0.47686    -0.29642   0.96735   1.00
C3       0.57533    -0.16918   0.99370   1.00
H1       0.57708    -0.14774   0.00589   1.00
C3a      0.57095    -0.22974   0.95796   1.00
H1       0.56987    -0.24966   0.94553   1.00
C3b      0.63132    -0.14015   0.98100   1.00
H1       0.67016    -0.09925   0.98430   1.00
C6       0.62918    -0.16974   0.96270   1.00
C6       0.68859    -0.13841   0.94884   1.00
C3c      0.69260    -0.09408   0.93375   1.00
H1       0.66071    -0.07969   0.93324   1.00
C3d      0.73866    -0.15619   0.95127   1.00
H1       0.73723    -0.18630   0.96111   1.00
C3       0.74724    -0.06817   0.92043   1.00
H1       0.75071    -0.03746   0.91045   1.00
C3       0.79283    -0.12860   0.93656   1.00
H1       0.82670    -0.14018   0.93744   1.00
C2       0.79640    -0.08630   0.92155   1.00
C2       0.25412    0.48216    0.98877   1.00
C3       0.22695    0.48363    0.97106   1.00
H1       0.22672    0.52314    0.96735   1.00
C3       0.25549    0.42467    0.99370   1.00
H1       0.27518    0.42292    0.00589   1.00
C3a      0.19931    0.42905    0.95796   1.00
H1       0.18046    0.43013    0.94553   1.00
C3b      0.22853    0.36868    0.98100   1.00
H1       0.23059    0.32984    0.98430   1.00
C6       0.20108    0.37082    0.96270   1.00
C6       0.17300    0.31141    0.94884   1.00
C3c      0.21332    0.30740    0.93375   1.00
H1       0.25961    0.33929    0.93324   1.00
C3d      0.10515    0.26134    0.95127   1.00
H1       0.07647    0.26277    0.96111   1.00
C3       0.18459    0.25276    0.92043   1.00
H1       0.21183    0.24929    0.91045   1.00
C3       0.07857    0.20717    0.93656   1.00
H1       0.03312    0.17330    0.93744   1.00
C2       0.11730    0.20360    0.92155   1.00
C2       0.22804    0.74588    0.98877   1.00
C3       0.25668    0.77305    0.97106   1.00
H1       0.29642    0.77328    0.96735   1.00
C3       0.16918    0.74451    0.99370   1.00
H1       0.14774    0.72482    0.00589   1.00
C3a      0.22974    0.80069    0.95796   1.00
H1       0.24966    0.81954    0.94553   1.00
C3b      0.14015    0.77147    0.98100   1.00
H1       0.09925    0.76941    0.98430   1.00
C6       0.16974    0.79892    0.96270   1.00
C6       0.13841    0.82700    0.94884   1.00
C3c      0.09408    0.78668    0.93375   1.00
H1       0.07969    0.74039    0.93324   1.00
C3d      0.15619    0.89485    0.95127   1.00
H1       0.18630    0.92353    0.96111   1.00
C3       0.06817    0.81541    0.92043   1.00
H1       0.03746    0.78817    0.91045   1.00
C3       0.12860    0.92143    0.93656   1.00
H1       0.14018    0.96688    0.93744   1.00
C2       0.08630    0.88270    0.92155   1.00
C2       0.22804    0.48216    0.48877   1.00
C3       0.25668    0.48363    0.47106   1.00
H1       0.29642    0.52314    0.46735   1.00
C3       0.16918    0.42467    0.49370   1.00
H1       0.14774    0.42292    0.50589   1.00
C3a      0.22974    0.42905    0.45796   1.00
H1       0.24966    0.43013    0.44553   1.00
C3b      0.14015    0.36868    0.48100   1.00
H1       0.09925    0.32984    0.48430   1.00
C6       0.16974    0.37082    0.46270   1.00
C6       0.13841    0.31141    0.44884   1.00
C3c      0.09408    0.30740    0.43375   1.00
H1       0.07969    0.33929    0.43324   1.00
C3d      0.15619    0.26134    0.45127   1.00
H1       0.18630    0.26277    0.46111   1.00
C3       0.06817    0.25276    0.42043   1.00
H1       0.03746    0.24929    0.41045   1.00
C3       0.12860    0.20717    0.43656   1.00
H1       0.14018    0.17330    0.43744   1.00
C2       0.08630    0.20360    0.42155   1.00
C2       0.51784    0.74588    0.48877   1.00
C3       0.51637    0.77305    0.47106   1.00
H1       0.47686    0.77328    0.46735   1.00
C3       0.57533    0.74451    0.49370   1.00
H1       0.57708    0.72482    0.50589   1.00
C3a      0.57095    0.80069    0.45796   1.00
H1       0.56987    0.81954    0.44553   1.00
C3b      0.63132    0.77147    0.48100   1.00
H1       0.67016    0.76941    0.48430   1.00
C6       0.62918    0.79892    0.46270   1.00
C6       0.68859    0.82700    0.44884   1.00
C3c      0.69260    0.78668    0.43375   1.00
H1       0.66071    0.74039    0.43324   1.00
C3d      0.73866    0.89485    0.45127   1.00
H1       0.73723    0.92353    0.46111   1.00
C3       0.74724    0.81541    0.42043   1.00
H1       0.75071    0.78817    0.41045   1.00
C3       0.79283    0.92143    0.43656   1.00
H1       0.82670    0.96688    0.43744   1.00
C2       0.79640    0.88270    0.42155   1.00
C2       0.25412    -0.22804   0.48877   1.00
C3       0.22695    -0.25668   0.47106   1.00
H1       0.22672    -0.29642   0.46735   1.00
C3       0.25549    -0.16918   0.49370   1.00
H1       0.27518    -0.14774   0.50589   1.00
C3a      0.19931    -0.22974   0.45796   1.00
H1       0.18046    -0.24966   0.44553   1.00
C3b      0.22853    -0.14015   0.48100   1.00
H1       0.23059    -0.09925   0.48430   1.00
C6       0.20108    -0.16974   0.46270   1.00
C6       0.17300    -0.13841   0.44884   1.00
C3c      0.21332    -0.09408   0.43375   1.00
H1       0.25961    -0.07969   0.43324   1.00
C3d      0.10515    -0.15619   0.45127   1.00
H1       0.07647    -0.18630   0.46111   1.00
C3       0.18459    -0.06817   0.42043   1.00
H1       0.21183    -0.03746   0.41045   1.00
C3       0.07857    -0.12860   0.43656   1.00
H1       0.03312    -0.14018   0.43744   1.00
C2       0.11730    -0.08630   0.42155   1.00
C2       0.48216    0.22804    0.01123   1.00
C3       0.48363    0.25668    0.02894   1.00
H1       0.52314    0.29642    0.03265   1.00
C3       0.42467    0.16918    0.00630   1.00
H1       0.42292    0.14774    0.99411   1.00
C3a      0.42905    0.22974    0.04204   1.00
H1       0.43013    0.24966    0.05447   1.00
C3b      0.36868    0.14015    0.01900   1.00
H1       0.32984    0.09925    0.01570   1.00
C6       0.37082    0.16974    0.03730   1.00
C6       0.31141    0.13841    0.05116   1.00
C3c      0.30740    0.09408    0.06625   1.00
H1       0.33929    0.07969    0.06676   1.00
C3d      0.26134    0.15619    0.04873   1.00
H1       0.26277    0.18630    0.03889   1.00
C3       0.25276    0.06817    0.07957   1.00
H1       0.24929    0.03746    0.08955   1.00
C3       0.20717    0.12860    0.06344   1.00
H1       0.17330    0.14018    0.06256   1.00
C2       0.20360    0.08630    0.07845   1.00
C2       0.74588    0.51784    0.01123   1.00
C3       0.77305    0.51637    0.02894   1.00
H1       0.77328    0.47686    0.03265   1.00
C3       0.74451    0.57533    0.00630   1.00
H1       0.72482    0.57708    0.99411   1.00
C3a      0.80069    0.57095    0.04204   1.00
H1       0.81954    0.56987    0.05447   1.00
C3b      0.77147    0.63132    0.01900   1.00
H1       0.76941    0.67016    0.01570   1.00
C6       0.79892    0.62918    0.03730   1.00
C6       0.82700    0.68859    0.05116   1.00
C3c      0.78668    0.69260    0.06625   1.00
H1       0.74039    0.66071    0.06676   1.00
C3d      0.89485    0.73866    0.04873   1.00
H1       0.92353    0.73723    0.03889   1.00
C3       0.81541    0.74724    0.07957   1.00
H1       0.78817    0.75071    0.08955   1.00
C3       0.92143    0.79283    0.06344   1.00
H1       0.96688    0.82670    0.06256   1.00
C2       0.88270    0.79640    0.07845   1.00
C2       -0.22804   0.25412    0.01123   1.00
C3       -0.25668   0.22695    0.02894   1.00
H1       -0.29642   0.22672    0.03265   1.00
C3       -0.16918   0.25549    0.00630   1.00
H1       -0.14774   0.27518    0.99411   1.00
C3a      -0.22974   0.19931    0.04204   1.00
H1       -0.24966   0.18046    0.05447   1.00
C3b      -0.14015   0.22853    0.01900   1.00
H1       -0.09925   0.23059    0.01570   1.00
C6       -0.16974   0.20108    0.03730   1.00
C6       -0.13841   0.17300    0.05116   1.00
C3c      -0.09408   0.21332    0.06625   1.00
H1       -0.07969   0.25961    0.06676   1.00
C3d      -0.15619   0.10515    0.04873   1.00
H1       -0.18630   0.07647    0.03889   1.00
C3       -0.06817   0.18459    0.07957   1.00
H1       -0.03746   0.21183    0.08955   1.00
C3       -0.12860   0.07857    0.06344   1.00
H1       -0.14018   0.03312    0.06256   1.00
C2       -0.08630   0.11730    0.07845   1.00
C2       0.43863    0.85117    0.84456   1.00
C3       0.40999    0.84970    0.86227   1.00
H1       0.37025    0.81019    0.86598   1.00
C3       0.49749    0.90866    0.83963   1.00
H1       0.51893    0.91041    0.82744   1.00
C3a      0.43693    0.90428    0.87537   1.00
H1       0.41701    0.90320    0.88780   1.00
C3b      0.52652    0.96465    0.85233   1.00
H1       0.56742    1.00349    0.84903   1.00
C6       0.49693    0.96251    0.87063   1.00
C6       0.52826    0.02192    0.88449   1.00
C3c      0.57259    0.02593    0.89958   1.00
H1       0.58698    -0.00596   0.90009   1.00
C3d      0.51048    0.07199    0.88206   1.00
H1       0.48037    0.07056    0.87222   1.00
C3       0.59850    0.08057    0.91290   1.00
H1       0.62921    0.08404    0.92288   1.00
C3       0.53807    0.12616    0.89677   1.00
H1       0.52649    0.16003    0.89589   1.00
C2       0.58037    0.12973    0.91178   1.00
C2       0.14883    0.58745    0.84456   1.00
C3       0.15030    0.56028    0.86227   1.00
H1       0.18981    0.56005    0.86598   1.00
C3       0.09134    0.58882    0.83963   1.00
H1       0.08959    0.60851    0.82744   1.00
C3a      0.09572    0.53264    0.87537   1.00
H1       0.09680    0.51379    0.88780   1.00
C3b      0.03535    0.56186    0.85233   1.00
H1       -0.00349   0.56392    0.84903   1.00
C6       0.03749    0.53441    0.87063   1.00
C6       0.97808    0.50633    0.88449   1.00
C3c      0.97407    0.54665    0.89958   1.00
H1       1.00596    0.59294    0.90009   1.00
C3d      0.92801    0.43848    0.88206   1.00
H1       0.92944    0.40980    0.87222   1.00
C3       0.91943    0.51792    0.91290   1.00
H1       0.91596    0.54516    0.92288   1.00
C3       0.87384    0.41190    0.89677   1.00
H1       0.83997    0.36645    0.89589   1.00
C2       0.87027    0.45063    0.91178   1.00
C2       0.41255    0.56137    0.84456   1.00
C3       0.43972    0.59001    0.86227   1.00
H1       0.43995    0.62975    0.86598   1.00
C3       0.41118    0.50251    0.83963   1.00
H1       0.39149    0.48107    0.82744   1.00
C3a      0.46736    0.56307    0.87537   1.00
H1       0.48621    0.58299    0.88780   1.00
C3b      0.43814    0.47348    0.85233   1.00
H1       0.43608    0.43258    0.84903   1.00
C6       0.46559    0.50307    0.87063   1.00
C6       0.49367    0.47174    0.88449   1.00
C3c      0.45335    0.42741    0.89958   1.00
H1       0.40706    0.41302    0.90009   1.00
C3d      0.56152    0.48952    0.88206   1.00
H1       0.59020    0.51963    0.87222   1.00
C3       0.48208    0.40150    0.91290   1.00
H1       0.45484    0.37079    0.92288   1.00
C3       0.58810    0.46193    0.89677   1.00
H1       0.63355    0.47351    0.89589   1.00
C2       0.54937    0.41963    0.91178   1.00
C2       0.18451    0.10529    0.32210   1.00
C3       0.18304    0.07665    0.30439   1.00
H1       0.14353    0.03691    0.30068   1.00
C3       0.24200    0.16415    0.32703   1.00
H1       0.24375    0.18559    0.33922   1.00
C3a      0.23762    0.10359    0.29129   1.00
H1       0.23654    0.08367    0.27886   1.00
C3b      0.29799    0.19318    0.31433   1.00
H1       0.33683    0.23408    0.31763   1.00
C6       0.29585    0.16359    0.29603   1.00
C6       0.35526    0.19492    0.28217   1.00
C3c      0.35927    0.23925    0.26708   1.00
H1       0.32738    0.25364    0.26657   1.00
C3d      0.40533    0.17714    0.28460   1.00
H1       0.40390    0.14703    0.29444   1.00
C3       0.41391    0.26516    0.25376   1.00
H1       0.41738    0.29587    0.24378   1.00
C3       0.45950    0.20473    0.26989   1.00
H1       0.49337    0.19315    0.27077   1.00
C2       0.46307    0.24703    0.25488   1.00
C2       0.92079    0.81549    0.32210   1.00
C3       0.89362    0.81696    0.30439   1.00
H1       0.89339    0.85647    0.30068   1.00
C3       0.92216    0.75800    0.32703   1.00
H1       0.94185    0.75625    0.33922   1.00
C3a      0.86598    0.76238    0.29129   1.00
H1       0.84713    0.76346    0.27886   1.00
C3b      0.89520    0.70201    0.31433   1.00
H1       0.89726    0.66317    0.31763   1.00
C6       0.86775    0.70415    0.29603   1.00
C6       0.83967    0.64474    0.28217   1.00
C3c      0.87999    0.64073    0.26708   1.00
H1       0.92628    0.67262    0.26657   1.00
C3d      0.77182    0.59467    0.28460   1.00
H1       0.74314    0.59610    0.29444   1.00
C3       0.85126    0.58609    0.25376   1.00
H1       0.87850    0.58262    0.24378   1.00
C3       0.74524    0.54050    0.26989   1.00
H1       0.69979    0.50663    0.27077   1.00
C2       0.78397    0.53693    0.25488   1.00
C2       0.89471    0.07921    0.32210   1.00
C3       0.92335    0.10638    0.30439   1.00
H1       0.96309    0.10661    0.30068   1.00
C3       0.83585    0.07784    0.32703   1.00
H1       0.81441    0.05815    0.33922   1.00
C3a      0.89641    0.13402    0.29129   1.00
H1       0.91633    0.15287    0.27886   1.00
C3b      0.80682    0.10480    0.31433   1.00
H1       0.76592    0.10274    0.31763   1.00
C6       0.83641    0.13225    0.29603   1.00
C6       0.80508    0.16033    0.28217   1.00
C3c      0.76075    0.12001    0.26708   1.00
H1       0.74636    0.07372    0.26657   1.00
C3d      0.82286    0.22818    0.28460   1.00
H1       0.85297    0.25686    0.29444   1.00
C3       0.73484    0.14874    0.25376   1.00
H1       0.70413    0.12150    0.24378   1.00
C3       0.79527    0.25476    0.26989   1.00
H1       0.80685    0.30021    0.27077   1.00
C2       0.75297    0.21603    0.25488   1.00
C2       0.89471    0.81549    0.82210   1.00
C3       0.92335    0.81696    0.80439   1.00
H1       0.96309    0.85647    0.80068   1.00
C3       0.83585    0.75800    0.82703   1.00
H1       0.81441    0.75625    0.83922   1.00
C3a      0.89641    0.76238    0.79129   1.00
H1       0.91633    0.76346    0.77886   1.00
C3b      0.80682    0.70201    0.81433   1.00
H1       0.76592    0.66317    0.81763   1.00
C6       0.83641    0.70415    0.79603   1.00
C6       0.80508    0.64474    0.78217   1.00
C3c      0.76075    0.64073    0.76708   1.00
H1       0.74636    0.67262    0.76657   1.00
C3d      0.82286    0.59467    0.78460   1.00
H1       0.85297    0.59610    0.79444   1.00
C3       0.73484    0.58609    0.75376   1.00
H1       0.70413    0.58262    0.74378   1.00
C3       0.79527    0.54050    0.76989   1.00
H1       0.80685    0.50663    0.77077   1.00
C2       0.75297    0.53693    0.75488   1.00
C2       0.18451    0.07921    0.82210   1.00
C3       0.18304    0.10638    0.80439   1.00
H1       0.14353    0.10661    0.80068   1.00
C3       0.24200    0.07784    0.82703   1.00
H1       0.24375    0.05815    0.83922   1.00
C3a      0.23762    0.13402    0.79129   1.00
H1       0.23654    0.15287    0.77886   1.00
C3b      0.29799    0.10480    0.81433   1.00
H1       0.33683    0.10274    0.81763   1.00
C6       0.29585    0.13225    0.79603   1.00
C6       0.35526    0.16033    0.78217   1.00
C3c      0.35927    0.12001    0.76708   1.00
H1       0.32738    0.07372    0.76657   1.00
C3d      0.40533    0.22818    0.78460   1.00
H1       0.40390    0.25686    0.79444   1.00
C3       0.41391    0.14874    0.75376   1.00
H1       0.41738    0.12150    0.74378   1.00
C3       0.45950    0.25476    0.76989   1.00
H1       0.49337    0.30021    0.77077   1.00
C2       0.46307    0.21603    0.75488   1.00
C2       0.92079    0.10529    0.82210   1.00
C3       0.89362    0.07665    0.80439   1.00
H1       0.89339    0.03691    0.80068   1.00
C3       0.92216    0.16415    0.82703   1.00
H1       0.94185    0.18559    0.83922   1.00
C3a      0.86598    0.10359    0.79129   1.00
H1       0.84713    0.08367    0.77886   1.00
C3b      0.89520    0.19318    0.81433   1.00
H1       0.89726    0.23408    0.81763   1.00
C6       0.86775    0.16359    0.79603   1.00
C6       0.83967    0.19492    0.78217   1.00
C3c      0.87999    0.23925    0.76708   1.00
H1       0.92628    0.25364    0.76657   1.00
C3d      0.77182    0.17714    0.78460   1.00
H1       0.74314    0.14703    0.79444   1.00
C3       0.85126    0.26516    0.75376   1.00
H1       0.87850    0.29587    0.74378   1.00
C3       0.74524    0.20473    0.76989   1.00
H1       0.69979    0.19315    0.77077   1.00
C2       0.78397    0.24703    0.75488   1.00
C2       0.14883    0.56137    0.34456   1.00
C3       0.15030    0.59001    0.36227   1.00
H1       0.18981    0.62975    0.36598   1.00
C3       0.09134    0.50251    0.33963   1.00
H1       0.08959    0.48107    0.32744   1.00
C3a      0.09572    0.56307    0.37537   1.00
H1       0.09680    0.58299    0.38780   1.00
C3b      0.03535    0.47348    0.35233   1.00
H1       -0.00349   0.43258    0.34903   1.00
C6       0.03749    0.50307    0.37063   1.00
C6       0.97808    0.47174    0.38449   1.00
C3c      0.97407    0.42741    0.39958   1.00
H1       1.00596    0.41302    0.40009   1.00
C3d      0.92801    0.48952    0.38206   1.00
H1       0.92944    0.51963    0.37222   1.00
C3       0.91943    0.40150    0.41290   1.00
H1       0.91596    0.37079    0.42288   1.00
C3       0.87384    0.46193    0.39677   1.00
H1       0.83997    0.47351    0.39589   1.00
C2       0.87027    0.41963    0.41178   1.00
C2       0.41255    0.85117    0.34456   1.00
C3       0.43972    0.84970    0.36227   1.00
H1       0.43995    0.81019    0.36598   1.00
C3       0.41118    0.90866    0.33963   1.00
H1       0.39149    0.91041    0.32744   1.00
C3a      0.46736    0.90428    0.37537   1.00
H1       0.48621    0.90320    0.38780   1.00
C3b      0.43814    0.96465    0.35233   1.00
H1       0.43608    1.00349    0.34903   1.00
C6       0.46559    0.96251    0.37063   1.00
C6       0.49367    0.02192    0.38449   1.00
C3c      0.45335    0.02593    0.39958   1.00
H1       0.40706    -0.00596   0.40009   1.00
C3d      0.56152    0.07199    0.38206   1.00
H1       0.59020    0.07056    0.37222   1.00
C3       0.48208    0.08057    0.41290   1.00
H1       0.45484    0.08404    0.42288   1.00
C3       0.58810    0.12616    0.39677   1.00
H1       0.63355    0.16003    0.39589   1.00
C2       0.54937    0.12973    0.41178   1.00
C2       0.43863    0.58745    0.34456   1.00
C3       0.40999    0.56028    0.36227   1.00
H1       0.37025    0.56005    0.36598   1.00
C3       0.49749    0.58882    0.33963   1.00
H1       0.51893    0.60851    0.32744   1.00
C3a      0.43693    0.53264    0.37537   1.00
H1       0.41701    0.51379    0.38780   1.00
C3b      0.52652    0.56186    0.35233   1.00
H1       0.56742    0.56392    0.34903   1.00
C6       0.49693    0.53441    0.37063   1.00
C6       0.52826    0.50633    0.38449   1.00
C3c      0.57259    0.54665    0.39958   1.00
H1       0.58698    0.59294    0.40009   1.00
C3d      0.51048    0.43848    0.38206   1.00
H1       0.48037    0.40980    0.37222   1.00
C3       0.59850    0.51792    0.41290   1.00
H1       0.62921    0.54516    0.42288   1.00
C3       0.53807    0.41190    0.39677   1.00
H1       0.52649    0.36645    0.39589   1.00
C2       0.58037    0.45063    0.41178   1.00
C2       0.10529    0.18451    0.17790   1.00
C3       0.07665    0.18304    0.19561   1.00
H1       0.03691    0.14353    0.19932   1.00
C3       0.16415    0.24200    0.17297   1.00
H1       0.18559    0.24375    0.16078   1.00
C3a      0.10359    0.23762    0.20871   1.00
H1       0.08367    0.23654    0.22114   1.00
C3b      0.19318    0.29799    0.18567   1.00
H1       0.23408    0.33683    0.18237   1.00
C6       0.16359    0.29585    0.20397   1.00
C6       0.19492    0.35526    0.21783   1.00
C3c      0.23925    0.35927    0.23292   1.00
H1       0.25364    0.32738    0.23343   1.00
C3d      0.17714    0.40533    0.21540   1.00
H1       0.14703    0.40390    0.20556   1.00
C3       0.26516    0.41391    0.24624   1.00
H1       0.29587    0.41738    0.25622   1.00
C3       0.20473    0.45950    0.23011   1.00
H1       0.19315    0.49337    0.22923   1.00
C2       0.24703    0.46307    0.24512   1.00
C2       0.81549    0.92079    0.17790   1.00
C3       0.81696    0.89362    0.19561   1.00
H1       0.85647    0.89339    0.19932   1.00
C3       0.75800    0.92216    0.17297   1.00
H1       0.75625    0.94185    0.16078   1.00
C3a      0.76238    0.86598    0.20871   1.00
H1       0.76346    0.84713    0.22114   1.00
C3b      0.70201    0.89520    0.18567   1.00
H1       0.66317    0.89726    0.18237   1.00
C6       0.70415    0.86775    0.20397   1.00
C6       0.64474    0.83967    0.21783   1.00
C3c      0.64073    0.87999    0.23292   1.00
H1       0.67262    0.92628    0.23343   1.00
C3d      0.59467    0.77182    0.21540   1.00
H1       0.59610    0.74314    0.20556   1.00
C3       0.58609    0.85126    0.24624   1.00
H1       0.58262    0.87850    0.25622   1.00
C3       0.54050    0.74524    0.23011   1.00
H1       0.50663    0.69979    0.22923   1.00
C2       0.53693    0.78397    0.24512   1.00
C2       0.07921    0.89471    0.17790   1.00
C3       0.10638    0.92335    0.19561   1.00
H1       0.10661    0.96309    0.19932   1.00
C3       0.07784    0.83585    0.17297   1.00
H1       0.05815    0.81441    0.16078   1.00
C3a      0.13402    0.89641    0.20871   1.00
H1       0.15287    0.91633    0.22114   1.00
C3b      0.10480    0.80682    0.18567   1.00
H1       0.10274    0.76592    0.18237   1.00
C6       0.13225    0.83641    0.20397   1.00
C6       0.16033    0.80508    0.21783   1.00
C3c      0.12001    0.76075    0.23292   1.00
H1       0.07372    0.74636    0.23343   1.00
C3d      0.22818    0.82286    0.21540   1.00
H1       0.25686    0.85297    0.20556   1.00
C3       0.14874    0.73484    0.24624   1.00
H1       0.12150    0.70413    0.25622   1.00
C3       0.25476    0.79527    0.23011   1.00
H1       0.30021    0.80685    0.22923   1.00
C2       0.21603    0.75297    0.24512   1.00
C2       0.85117    0.43863    0.65544   1.00
C3       0.84970    0.40999    0.63773   1.00
H1       0.81019    0.37025    0.63402   1.00
C3       0.90866    0.49749    0.66037   1.00
H1       0.91041    0.51893    0.67256   1.00
C3a      0.90428    0.43693    0.62463   1.00
H1       0.90320    0.41701    0.61220   1.00
C3b      0.96465    0.52652    0.64767   1.00
H1       1.00349    0.56742    0.65097   1.00
C6       0.96251    0.49693    0.62937   1.00
C6       0.02192    0.52826    0.61551   1.00
C3c      0.02593    0.57259    0.60042   1.00
H1       -0.00596   0.58698    0.59991   1.00
C3d      0.07199    0.51048    0.61794   1.00
H1       0.07056    0.48037    0.62778   1.00
C3       0.08057    0.59850    0.58710   1.00
H1       0.08404    0.62921    0.57712   1.00
C3       0.12616    0.53807    0.60323   1.00
H1       0.16003    0.52649    0.60411   1.00
C2       0.12973    0.58037    0.58822   1.00
C2       0.58745    0.14883    0.65544   1.00
C3       0.56028    0.15030    0.63773   1.00
H1       0.56005    0.18981    0.63402   1.00
C3       0.58882    0.09134    0.66037   1.00
H1       0.60851    0.08959    0.67256   1.00
C3a      0.53264    0.09572    0.62463   1.00
H1       0.51379    0.09680    0.61220   1.00
C3b      0.56186    0.03535    0.64767   1.00
H1       0.56392    -0.00349   0.65097   1.00
C6       0.53441    0.03749    0.62937   1.00
C6       0.50633    0.97808    0.61551   1.00
C3c      0.54665    0.97407    0.60042   1.00
H1       0.59294    1.00596    0.59991   1.00
C3d      0.43848    0.92801    0.61794   1.00
H1       0.40980    0.92944    0.62778   1.00
C3       0.51792    0.91943    0.58710   1.00
H1       0.54516    0.91596    0.57712   1.00
C3       0.41190    0.87384    0.60323   1.00
H1       0.36645    0.83997    0.60411   1.00
C2       0.45063    0.87027    0.58822   1.00
C2       0.56137    0.41255    0.65544   1.00
C3       0.59001    0.43972    0.63773   1.00
H1       0.62975    0.43995    0.63402   1.00
C3       0.50251    0.41118    0.66037   1.00
H1       0.48107    0.39149    0.67256   1.00
C3a      0.56307    0.46736    0.62463   1.00
H1       0.58299    0.48621    0.61220   1.00
C3b      0.47348    0.43814    0.64767   1.00
H1       0.43258    0.43608    0.65097   1.00
C6       0.50307    0.46559    0.62937   1.00
C6       0.47174    0.49367    0.61551   1.00
C3c      0.42741    0.45335    0.60042   1.00
H1       0.41302    0.40706    0.59991   1.00
C3d      0.48952    0.56152    0.61794   1.00
H1       0.51963    0.59020    0.62778   1.00
C3       0.40150    0.48208    0.58710   1.00
H1       0.37079    0.45484    0.57712   1.00
C3       0.46193    0.58810    0.60323   1.00
H1       0.47351    0.63355    0.60411   1.00
C2       0.41963    0.54937    0.58822   1.00
C2       0.56137    0.14883    0.15544   1.00
C3       0.59001    0.15030    0.13773   1.00
H1       0.62975    0.18981    0.13402   1.00
C3       0.50251    0.09134    0.16037   1.00
H1       0.48107    0.08959    0.17256   1.00
C3a      0.56307    0.09572    0.12463   1.00
H1       0.58299    0.09680    0.11220   1.00
C3b      0.47348    0.03535    0.14767   1.00
H1       0.43258    -0.00349   0.15097   1.00
C6       0.50307    0.03749    0.12937   1.00
C6       0.47174    0.97808    0.11551   1.00
C3c      0.42741    0.97407    0.10042   1.00
H1       0.41302    1.00596    0.09991   1.00
C3d      0.48952    0.92801    0.11794   1.00
H1       0.51963    0.92944    0.12778   1.00
C3       0.40150    0.91943    0.08710   1.00
H1       0.37079    0.91596    0.07712   1.00
C3       0.46193    0.87384    0.10323   1.00
H1       0.47351    0.83997    0.10411   1.00
C2       0.41963    0.87027    0.08822   1.00
C2       0.85117    0.41255    0.15544   1.00
C3       0.84970    0.43972    0.13773   1.00
H1       0.81019    0.43995    0.13402   1.00
C3       0.90866    0.41118    0.16037   1.00
H1       0.91041    0.39149    0.17256   1.00
C3a      0.90428    0.46736    0.12463   1.00
H1       0.90320    0.48621    0.11220   1.00
C3b      0.96465    0.43814    0.14767   1.00
H1       1.00349    0.43608    0.15097   1.00
C6       0.96251    0.46559    0.12937   1.00
C6       0.02192    0.49367    0.11551   1.00
C3c      0.02593    0.45335    0.10042   1.00
H1       -0.00596   0.40706    0.09991   1.00
C3d      0.07199    0.56152    0.11794   1.00
H1       0.07056    0.59020    0.12778   1.00
C3       0.08057    0.48208    0.08710   1.00
H1       0.08404    0.45484    0.07712   1.00
C3       0.12616    0.58810    0.10323   1.00
H1       0.16003    0.63355    0.10411   1.00
C2       0.12973    0.54937    0.08822   1.00
C2       0.58745    0.43863    0.15544   1.00
C3       0.56028    0.40999    0.13773   1.00
H1       0.56005    0.37025    0.13402   1.00
C3       0.58882    0.49749    0.16037   1.00
H1       0.60851    0.51893    0.17256   1.00
C3a      0.53264    0.43693    0.12463   1.00
H1       0.51379    0.41701    0.11220   1.00
C3b      0.56186    0.52652    0.14767   1.00
H1       0.56392    0.56742    0.15097   1.00
C6       0.53441    0.49693    0.12937   1.00
C6       0.50633    0.52826    0.11551   1.00
C3c      0.54665    0.57259    0.10042   1.00
H1       0.59294    0.58698    0.09991   1.00
C3d      0.43848    0.51048    0.11794   1.00
H1       0.40980    0.48037    0.12778   1.00
C3       0.51792    0.59850    0.08710   1.00
H1       0.54516    0.62921    0.07712   1.00
C3       0.41190    0.53807    0.10323   1.00
H1       0.36645    0.52649    0.10411   1.00
C2       0.45063    0.58037    0.08822   1.00
C2       0.81549    0.89471    0.67790   1.00
C3       0.81696    0.92335    0.69561   1.00
H1       0.85647    0.96309    0.69932   1.00
C3       0.75800    0.83585    0.67297   1.00
H1       0.75625    0.81441    0.66078   1.00
C3a      0.76238    0.89641    0.70871   1.00
H1       0.76346    0.91633    0.72114   1.00
C3b      0.70201    0.80682    0.68567   1.00
H1       0.66317    0.76592    0.68237   1.00
C6       0.70415    0.83641    0.70397   1.00
C6       0.64474    0.80508    0.71783   1.00
C3c      0.64073    0.76075    0.73292   1.00
H1       0.67262    0.74636    0.73343   1.00
C3d      0.59467    0.82286    0.71540   1.00
H1       0.59610    0.85297    0.70556   1.00
C3       0.58609    0.73484    0.74624   1.00
H1       0.58262    0.70413    0.75622   1.00
C3       0.54050    0.79527    0.73011   1.00
H1       0.50663    0.80685    0.72923   1.00
C2       0.53693    0.75297    0.74512   1.00
C2       0.07921    0.18451    0.67790   1.00
C3       0.10638    0.18304    0.69561   1.00
H1       0.10661    0.14353    0.69932   1.00
C3       0.07784    0.24200    0.67297   1.00
H1       0.05815    0.24375    0.66078   1.00
C3a      0.13402    0.23762    0.70871   1.00
H1       0.15287    0.23654    0.72114   1.00
C3b      0.10480    0.29799    0.68567   1.00
H1       0.10274    0.33683    0.68237   1.00
C6       0.13225    0.29585    0.70397   1.00
C6       0.16033    0.35526    0.71783   1.00
C3c      0.12001    0.35927    0.73292   1.00
H1       0.07372    0.32738    0.73343   1.00
C3d      0.22818    0.40533    0.71540   1.00
H1       0.25686    0.40390    0.70556   1.00
C3       0.14874    0.41391    0.74624   1.00
H1       0.12150    0.41738    0.75622   1.00
C3       0.25476    0.45950    0.73011   1.00
H1       0.30021    0.49337    0.72923   1.00
C2       0.21603    0.46307    0.74512   1.00
C2       0.10529    0.92079    0.67790   1.00
C3       0.07665    0.89362    0.69561   1.00
H1       0.03691    0.89339    0.69932   1.00
C3       0.16415    0.92216    0.67297   1.00
H1       0.18559    0.94185    0.66078   1.00
C3a      0.10359    0.86598    0.70871   1.00
H1       0.08367    0.84713    0.72114   1.00
C3b      0.19318    0.89520    0.68567   1.00
H1       0.23408    0.89726    0.68237   1.00
C6       0.16359    0.86775    0.70397   1.00
C6       0.19492    0.83967    0.71783   1.00
C3c      0.23925    0.87999    0.73292   1.00
H1       0.25364    0.92628    0.73343   1.00
C3d      0.17714    0.77182    0.71540   1.00
H1       0.14703    0.74314    0.70556   1.00
C3       0.26516    0.85126    0.74624   1.00
H1       0.29587    0.87850    0.75622   1.00
C3       0.20473    0.74524    0.73011   1.00
H1       0.19315    0.69979    0.72923   1.00
C2       0.24703    0.78397    0.74512   1.00
