data_IRMOF10_interpen_symm_ligand1lp_symm_j

_audit_creation_method             'generated by an auxiliary program of Tobunporous'

_symmetry_space_group_name_H-M     'P 1'
_symmetry_Int_Tables_number        1
_symmetry_cell_setting             triclinic

_cell_length_a                    22.6523
_cell_length_b                    22.6523
_cell_length_c                    65.9502
_cell_angle_alpha                 90.0000
_cell_angle_beta                  90.0000
_cell_angle_gamma                 120.0000

loop_
_atom_site_label
_atom_site_fract_x
_atom_site_fract_y
_atom_site_fract_z
_atom_site_occupancy
O1       0.00000    -0.00000   0.62500   1.00
Zn      0.00000    -0.00000   0.59589   1.00
Zn      0.94848    1.04288    0.63392   1.00
Zn      0.09439    0.05152    0.63392   1.00
Zn      -0.04288   0.90561    0.63392   1.00
O2       0.93860    0.02610    0.58587   1.00
O2       0.08750    0.06140    0.58587   1.00
O2       -0.02610   0.91250    0.58587   1.00
O2       0.91305    0.07161    0.61181   1.00
O2       0.00462    0.12022    0.65110   1.00
O2       0.87413    0.98074    0.65071   1.00
O2       0.15856    0.08695    0.61181   1.00
O2       0.10660    0.12587    0.65071   1.00
O2       0.11559    0.99538    0.65110   1.00
O2       -0.07161   0.84144    0.61181   1.00
O2       0.87978    0.88441    0.65110   1.00
O2       0.01926    0.89340    0.65071   1.00
C1       0.91390    0.06020    0.59358   1.00
C1       0.14630    0.08610    0.59358   1.00
C1       -0.06020   0.85370    0.59358   1.00
C1       0.06663    0.14397    0.65673   1.00
C1       0.85603    0.92267    0.65673   1.00
C1       0.07733    0.93337    0.65673   1.00
O1       -0.00000   0.00000    0.87500   1.00
Zn      -0.00000   0.00000    0.90411   1.00
Zn      1.04288    0.94848    0.86608   1.00
Zn      0.05152    0.09439    0.86608   1.00
Zn      0.90561    -0.04288   0.86608   1.00
O2       0.02610    0.93860    0.91413   1.00
O2       0.06140    0.08750    0.91413   1.00
O2       0.91250    -0.02610   0.91413   1.00
O2       0.07161    0.91305    0.88819   1.00
O2       0.12022    0.00462    0.84890   1.00
O2       0.98074    0.87413    0.84929   1.00
O2       0.08695    0.15856    0.88819   1.00
O2       0.12587    0.10660    0.84929   1.00
O2       0.99538    0.11559    0.84890   1.00
O2       0.84144    -0.07161   0.88819   1.00
O2       0.88441    0.87978    0.84890   1.00
O2       0.89340    0.01926    0.84929   1.00
C1       0.06020    0.91390    0.90642   1.00
C1       0.08610    0.14630    0.90642   1.00
C1       0.85370    -0.06020   0.90642   1.00
C1       0.14397    0.06663    0.84327   1.00
C1       0.92267    0.85603    0.84327   1.00
C1       0.93337    0.07733    0.84327   1.00
O1       0.00000    0.00000    0.37500   1.00
Zn      0.00000    0.00000    0.40411   1.00
Zn      0.05152    -0.04288   0.36608   1.00
Zn      0.90561    0.94848    0.36608   1.00
Zn      1.04288    0.09439    0.36608   1.00
O2       0.06140    -0.02610   0.41413   1.00
O2       0.91250    0.93860    0.41413   1.00
O2       0.02610    0.08750    0.41413   1.00
O2       0.08695    -0.07161   0.38819   1.00
O2       0.99538    0.87978    0.34890   1.00
O2       0.12587    0.01926    0.34929   1.00
O2       0.84144    0.91305    0.38819   1.00
O2       0.89340    0.87413    0.34929   1.00
O2       0.88441    0.00462    0.34890   1.00
O2       0.07161    0.15856    0.38819   1.00
O2       0.12022    0.11559    0.34890   1.00
O2       0.98074    0.10660    0.34929   1.00
C1       0.08610    -0.06020   0.40642   1.00
C1       0.85370    0.91390    0.40642   1.00
C1       0.06020    0.14630    0.40642   1.00
C1       0.93337    0.85603    0.34327   1.00
C1       0.14397    0.07733    0.34327   1.00
C1       0.92267    0.06663    0.34327   1.00
O1       0.00000    0.00000    0.12500   1.00
Zn      0.00000    0.00000    0.09589   1.00
Zn      -0.04288   0.05152    0.13392   1.00
Zn      0.94848    0.90561    0.13392   1.00
Zn      0.09439    1.04288    0.13392   1.00
O2       -0.02610   0.06140    0.08587   1.00
O2       0.93860    0.91250    0.08587   1.00
O2       0.08750    0.02610    0.08587   1.00
O2       -0.07161   0.08695    0.11181   1.00
O2       0.87978    0.99538    0.15110   1.00
O2       0.01926    0.12587    0.15071   1.00
O2       0.91305    0.84144    0.11181   1.00
O2       0.87413    0.89340    0.15071   1.00
O2       0.00462    0.88441    0.15110   1.00
O2       0.15856    0.07161    0.11181   1.00
O2       0.11559    0.12022    0.15110   1.00
O2       0.10660    0.98074    0.15071   1.00
C1       -0.06020   0.08610    0.09358   1.00
C1       0.91390    0.85370    0.09358   1.00
C1       0.14630    0.06020    0.09358   1.00
C1       0.85603    0.93337    0.15673   1.00
C1       0.07733    0.14397    0.15673   1.00
C1       0.06663    0.92267    0.15673   1.00
O1       0.66667    0.33333    0.95833   1.00
Zn      0.66667    0.33333    0.92922   1.00
Zn      0.61515    0.37621    0.96725   1.00
Zn      0.76106    0.38485    0.96725   1.00
Zn      -0.37621   0.23894    0.96725   1.00
O2       0.60527    0.35943    0.91920   1.00
O2       0.75417    0.39473    0.91920   1.00
O2       0.64057    0.24583    0.91920   1.00
O2       0.57972    0.40494    0.94514   1.00
O2       0.67129    0.45355    0.98443   1.00
O2       0.54080    0.31407    0.98404   1.00
O2       0.82523    0.42028    0.94514   1.00
O2       0.77327    0.45920    0.98404   1.00
O2       -0.21774   0.32871    0.98443   1.00
O2       0.59506    0.17477    0.94514   1.00
O2       0.54645    0.21774    0.98443   1.00
O2       -0.31407   0.22673    0.98404   1.00
C1       0.58057    0.39353    0.92691   1.00
C1       0.81297    0.41943    0.92691   1.00
C1       0.60647    0.18703    0.92691   1.00
C1       0.73330    0.47730    0.99006   1.00
C1       0.52270    0.25600    0.99006   1.00
C1       -0.25600   0.26670    0.99006   1.00
O1       0.66667    0.33333    0.20833   1.00
Zn      0.66667    0.33333    0.23744   1.00
Zn      0.70954    0.28182    0.19942   1.00
Zn      0.71818    0.42773    0.19942   1.00
Zn      0.57227    0.29046    0.19942   1.00
O2       0.69277    0.27193    0.24746   1.00
O2       0.72807    0.42083    0.24746   1.00
O2       0.57917    0.30723    0.24746   1.00
O2       0.73828    0.24638    0.22152   1.00
O2       0.78688    0.33796    0.18224   1.00
O2       0.64740    0.20747    0.18263   1.00
O2       0.75362    0.49189    0.22152   1.00
O2       0.79253    0.43994    0.18263   1.00
O2       0.66204    0.44893    0.18224   1.00
O2       0.50811    0.26172    0.22152   1.00
O2       0.55107    0.21312    0.18224   1.00
O2       0.56006    0.35260    0.18263   1.00
C1       0.72687    0.24723    0.23975   1.00
C1       0.75277    0.47963    0.23975   1.00
C1       0.52037    0.27313    0.23975   1.00
C1       0.81063    0.39997    0.17661   1.00
C1       0.58933    0.18937    0.17661   1.00
C1       0.60003    0.41067    0.17661   1.00
O1       0.66667    0.33333    0.70833   1.00
Zn      0.66667    0.33333    0.73744   1.00
Zn      0.71818    0.29046    0.69942   1.00
Zn      0.57227    0.28182    0.69942   1.00
Zn      0.70954    0.42773    0.69942   1.00
O2       0.72807    0.30723    0.74746   1.00
O2       0.57917    0.27193    0.74746   1.00
O2       0.69277    0.42083    0.74746   1.00
O2       0.75362    0.26172    0.72152   1.00
O2       0.66204    0.21312    0.68224   1.00
O2       0.79253    0.35260    0.68263   1.00
O2       0.50811    0.24638    0.72152   1.00
O2       0.56006    0.20747    0.68263   1.00
O2       0.55107    0.33796    0.68224   1.00
O2       0.73828    0.49189    0.72152   1.00
O2       0.78688    0.44893    0.68224   1.00
O2       0.64740    0.43994    0.68263   1.00
C1       0.75277    0.27313    0.73975   1.00
C1       0.52037    0.24723    0.73975   1.00
C1       0.72687    0.47963    0.73975   1.00
C1       0.60003    0.18937    0.67661   1.00
C1       0.81063    0.41067    0.67661   1.00
C1       0.58933    0.39997    0.67661   1.00
O1       0.66667    0.33333    0.45833   1.00
Zn      0.66667    0.33333    0.42922   1.00
Zn      -0.37621   0.38485    0.46725   1.00
Zn      0.61515    0.23894    0.46725   1.00
Zn      0.76106    0.37621    0.46725   1.00
O2       0.64057    0.39473    0.41920   1.00
O2       0.60527    0.24583    0.41920   1.00
O2       0.75417    0.35943    0.41920   1.00
O2       0.59506    0.42028    0.44514   1.00
O2       0.54645    0.32871    0.48443   1.00
O2       -0.31407   0.45920    0.48404   1.00
O2       0.57972    0.17477    0.44514   1.00
O2       0.54080    0.22673    0.48404   1.00
O2       0.67129    0.21774    0.48443   1.00
O2       0.82523    0.40494    0.44514   1.00
O2       -0.21774   0.45355    0.48443   1.00
O2       0.77327    0.31407    0.48404   1.00
C1       0.60647    0.41943    0.42691   1.00
C1       0.58057    0.18703    0.42691   1.00
C1       0.81297    0.39353    0.42691   1.00
C1       0.52270    0.26670    0.49006   1.00
C1       -0.25600   0.47730    0.49006   1.00
C1       0.73330    0.25600    0.49006   1.00
O1       0.33333    0.66667    0.29167   1.00
Zn      0.33333    0.66667    0.26256   1.00
Zn      0.28182    0.70954    0.30058   1.00
Zn      0.42773    0.71818    0.30058   1.00
Zn      0.29046    0.57227    0.30058   1.00
O2       0.27193    0.69277    0.25254   1.00
O2       0.42083    0.72807    0.25254   1.00
O2       0.30723    0.57917    0.25254   1.00
O2       0.24638    0.73828    0.27848   1.00
O2       0.33796    0.78688    0.31776   1.00
O2       0.20747    0.64740    0.31737   1.00
O2       0.49189    0.75362    0.27848   1.00
O2       0.43994    0.79253    0.31737   1.00
O2       0.44893    0.66204    0.31776   1.00
O2       0.26172    0.50811    0.27848   1.00
O2       0.21312    0.55107    0.31776   1.00
O2       0.35260    0.56006    0.31737   1.00
C1       0.24723    0.72687    0.26025   1.00
C1       0.47963    0.75277    0.26025   1.00
C1       0.27313    0.52037    0.26025   1.00
C1       0.39997    0.81063    0.32339   1.00
C1       0.18937    0.58933    0.32339   1.00
C1       0.41067    0.60003    0.32339   1.00
O1       0.33333    0.66667    0.54167   1.00
Zn      0.33333    0.66667    0.57078   1.00
Zn      0.37621    0.61515    0.53275   1.00
Zn      0.38485    0.76106    0.53275   1.00
Zn      0.23894    -0.37621   0.53275   1.00
O2       0.35943    0.60527    0.58080   1.00
O2       0.39473    0.75417    0.58080   1.00
O2       0.24583    0.64057    0.58080   1.00
O2       0.40494    0.57972    0.55486   1.00
O2       0.45355    0.67129    0.51557   1.00
O2       0.31407    0.54080    0.51596   1.00
O2       0.42028    0.82523    0.55486   1.00
O2       0.45920    0.77327    0.51596   1.00
O2       0.32871    -0.21774   0.51557   1.00
O2       0.17477    0.59506    0.55486   1.00
O2       0.21774    0.54645    0.51557   1.00
O2       0.22673    -0.31407   0.51596   1.00
C1       0.39353    0.58057    0.57309   1.00
C1       0.41943    0.81297    0.57309   1.00
C1       0.18703    0.60647    0.57309   1.00
C1       0.47730    0.73330    0.50994   1.00
C1       0.25600    0.52270    0.50994   1.00
C1       0.26670    -0.25600   0.50994   1.00
O1       0.33333    0.66667    0.04167   1.00
Zn      0.33333    0.66667    0.07078   1.00
Zn      0.38485    -0.37621   0.03275   1.00
Zn      0.23894    0.61515    0.03275   1.00
Zn      0.37621    0.76106    0.03275   1.00
O2       0.39473    0.64057    0.08080   1.00
O2       0.24583    0.60527    0.08080   1.00
O2       0.35943    0.75417    0.08080   1.00
O2       0.42028    0.59506    0.05486   1.00
O2       0.32871    0.54645    0.01557   1.00
O2       0.45920    -0.31407   0.01596   1.00
O2       0.17477    0.57972    0.05486   1.00
O2       0.22673    0.54080    0.01596   1.00
O2       0.21774    0.67129    0.01557   1.00
O2       0.40494    0.82523    0.05486   1.00
O2       0.45355    -0.21774   0.01557   1.00
O2       0.31407    0.77327    0.01596   1.00
C1       0.41943    0.60647    0.07309   1.00
C1       0.18703    0.58057    0.07309   1.00
C1       0.39353    0.81297    0.07309   1.00
C1       0.26670    0.52270    0.00994   1.00
C1       0.47730    -0.25600   0.00994   1.00
C1       0.25600    0.73330    0.00994   1.00
O1       0.33333    0.66667    0.79167   1.00
Zn      0.33333    0.66667    0.76256   1.00
Zn      0.29046    0.71818    0.80058   1.00
Zn      0.28182    0.57227    0.80058   1.00
Zn      0.42773    0.70954    0.80058   1.00
O2       0.30723    0.72807    0.75254   1.00
O2       0.27193    0.57917    0.75254   1.00
O2       0.42083    0.69277    0.75254   1.00
O2       0.26172    0.75362    0.77848   1.00
O2       0.21312    0.66204    0.81776   1.00
O2       0.35260    0.79253    0.81737   1.00
O2       0.24638    0.50811    0.77848   1.00
O2       0.20747    0.56006    0.81737   1.00
O2       0.33796    0.55107    0.81776   1.00
O2       0.49189    0.73828    0.77848   1.00
O2       0.44893    0.78688    0.81776   1.00
O2       0.43994    0.64740    0.81737   1.00
C1       0.27313    0.75277    0.76025   1.00
C1       0.24723    0.52037    0.76025   1.00
C1       0.47963    0.72687    0.76025   1.00
C1       0.18937    0.60003    0.82339   1.00
C1       0.41067    0.81063    0.82339   1.00
C1       0.39997    0.58933    0.82339   1.00
C2       -0.21121   0.54194    0.50324   1.00
C3       -0.21564   0.59806    0.50157   1.00
H1       -0.23663   0.60345    0.49016   1.00
C3       -0.18190   0.53422    0.52023   1.00
H1       -0.17918   0.49487    0.52185   1.00
C4       -0.19053   0.64842    0.51609   1.00
C5       -0.19586   0.71252    0.51423   1.00
H2       -0.23892   0.70389    0.51958   1.00
H2       -0.19258   0.72528    0.50023   1.00
H2       -0.15957   0.74883    0.52172   1.00
C4       -0.15616   0.58333    0.53524   1.00
C5       -0.12432   0.57322    0.55488   1.00
H2       -0.07584   0.59461    0.55330   1.00
H2       -0.14298   0.52543    0.55737   1.00
H2       -0.13449   0.59353    0.56609   1.00
C6       -0.16139   0.64080    0.53346   1.00
C6       -0.13488   0.69326    0.54962   1.00
C4       -0.17755   0.69174    0.56489   1.00
C5       -0.24775   0.63297    0.56659   1.00
H2       -0.27852   0.64242    0.55916   1.00
H2       -0.26106   0.62547    0.58055   1.00
H2       -0.24901   0.59296    0.56113   1.00
C4       -0.06687   0.74418    0.54860   1.00
C5       -0.01772   0.74899    0.53190   1.00
H2       0.00315    0.72260    0.53572   1.00
H2       0.01693    0.79570    0.53006   1.00
H2       -0.04243   0.73136    0.51950   1.00
C3       -0.15198   0.74339    0.57923   1.00
H1       -0.18022   0.74198    0.58972   1.00
C3       -0.04458   0.79687    0.56372   1.00
H1       0.00022    0.83245    0.56336   1.00
C2       -0.08630   0.79640    0.57845   1.00
C2       0.45806    0.24685    0.50324   1.00
C3       0.40194    0.18630    0.50157   1.00
H1       0.39655    0.15992    0.49016   1.00
C3       0.46578    0.28388    0.52023   1.00
H1       0.50513    0.32595    0.52185   1.00
C4       0.35158    0.16105    0.51609   1.00
C5       0.28748    0.09162    0.51423   1.00
H2       0.29611    0.05719    0.51958   1.00
H2       0.27472    0.08214    0.50023   1.00
H2       0.25117    0.09160    0.52172   1.00
C4       0.41667    0.26051    0.53524   1.00
C5       0.42678    0.30246    0.55488   1.00
H2       0.40539    0.32955    0.55330   1.00
H2       0.47457    0.33159    0.55737   1.00
H2       0.40647    0.27198    0.56609   1.00
C6       0.35920    0.19781    0.53346   1.00
C6       0.30674    0.17186    0.54962   1.00
C4       0.30826    0.13071    0.56489   1.00
C5       0.36703    0.11928    0.56659   1.00
H2       0.35758    0.07906    0.55916   1.00
H2       0.37453    0.11347    0.58055   1.00
H2       0.40704    0.15803    0.56113   1.00
C4       0.25582    0.18895    0.54860   1.00
C5       0.25101    0.23329    0.53190   1.00
H2       0.27740    0.28055    0.53572   1.00
H2       0.20430    0.22123    0.53006   1.00
H2       0.26864    0.22621    0.51950   1.00
C3       0.25661    0.10463    0.57923   1.00
H1       0.25802    0.07780    0.58972   1.00
C3       0.20313    0.15855    0.56372   1.00
H1       0.16755    0.16777    0.56336   1.00
C2       0.20360    0.11730    0.57845   1.00
C2       0.75315    0.21121    0.50324   1.00
C3       0.81370    0.21564    0.50157   1.00
H1       0.84008    0.23663    0.49016   1.00
C3       0.71612    0.18190    0.52023   1.00
H1       0.67405    0.17918    0.52185   1.00
C4       0.83895    0.19053    0.51609   1.00
C5       0.90838    0.19586    0.51423   1.00
H2       0.94281    0.23892    0.51958   1.00
H2       0.91786    0.19258    0.50023   1.00
H2       0.90840    0.15957    0.52172   1.00
C4       0.73949    0.15616    0.53524   1.00
C5       0.69754    0.12432    0.55488   1.00
H2       0.67045    0.07584    0.55330   1.00
H2       0.66841    0.14298    0.55737   1.00
H2       0.72802    0.13449    0.56609   1.00
C6       0.80219    0.16139    0.53346   1.00
C6       0.82814    0.13488    0.54962   1.00
C4       0.86929    0.17755    0.56489   1.00
C5       0.88072    0.24775    0.56659   1.00
H2       0.92094    0.27852    0.55916   1.00
H2       0.88653    0.26106    0.58055   1.00
H2       0.84197    0.24901    0.56113   1.00
C4       0.81105    0.06687    0.54860   1.00
C5       0.76671    0.01772    0.53190   1.00
H2       0.71945    0.99685    0.53572   1.00
H2       0.77877    0.98307    0.53006   1.00
H2       0.77379    0.04243    0.51950   1.00
C3       0.89537    0.15198    0.57923   1.00
H1       0.92220    0.18022    0.58972   1.00
C3       0.84145    0.04458    0.56372   1.00
H1       0.83223    0.99978    0.56336   1.00
C2       0.88270    0.08630    0.57845   1.00
C2       0.54194    -0.21121   0.99676   1.00
C3       0.59806    -0.21564   0.99843   1.00
H1       0.60345    -0.23663   0.00984   1.00
C3       0.53422    -0.18190   0.97977   1.00
H1       0.49487    -0.17918   0.97815   1.00
C4       0.64842    -0.19053   0.98391   1.00
C5       0.71252    -0.19586   0.98577   1.00
H2       0.70389    -0.23892   0.98042   1.00
H2       0.72528    -0.19258   0.99977   1.00
H2       0.74883    -0.15957   0.97828   1.00
C4       0.58333    -0.15616   0.96476   1.00
C5       0.57322    -0.12432   0.94512   1.00
H2       0.59461    -0.07584   0.94670   1.00
H2       0.52543    -0.14298   0.94263   1.00
H2       0.59353    -0.13449   0.93391   1.00
C6       0.64080    -0.16139   0.96654   1.00
C6       0.69326    -0.13488   0.95038   1.00
C4       0.69174    -0.17755   0.93511   1.00
C5       0.63297    -0.24775   0.93341   1.00
H2       0.64242    -0.27852   0.94084   1.00
H2       0.62547    -0.26106   0.91945   1.00
H2       0.59296    -0.24901   0.93887   1.00
C4       0.74418    -0.06687   0.95140   1.00
C5       0.74899    -0.01772   0.96810   1.00
H2       0.72260    0.00315    0.96428   1.00
H2       0.79570    0.01693    0.96994   1.00
H2       0.73136    -0.04243   0.98050   1.00
C3       0.74339    -0.15198   0.92077   1.00
H1       0.74198    -0.18022   0.91028   1.00
C3       0.79687    -0.04458   0.93628   1.00
H1       0.83245    0.00022    0.93664   1.00
C2       0.79640    -0.08630   0.92155   1.00
C2       0.24685    0.45806    0.99676   1.00
C3       0.18630    0.40194    0.99843   1.00
H1       0.15992    0.39655    0.00984   1.00
C3       0.28388    0.46578    0.97977   1.00
H1       0.32595    0.50513    0.97815   1.00
C4       0.16105    0.35158    0.98391   1.00
C5       0.09162    0.28748    0.98577   1.00
H2       0.05719    0.29611    0.98042   1.00
H2       0.08214    0.27472    0.99977   1.00
H2       0.09160    0.25117    0.97828   1.00
C4       0.26051    0.41667    0.96476   1.00
C5       0.30246    0.42678    0.94512   1.00
H2       0.32955    0.40539    0.94670   1.00
H2       0.33159    0.47457    0.94263   1.00
H2       0.27198    0.40647    0.93391   1.00
C6       0.19781    0.35920    0.96654   1.00
C6       0.17186    0.30674    0.95038   1.00
C4       0.13071    0.30826    0.93511   1.00
C5       0.11928    0.36703    0.93341   1.00
H2       0.07906    0.35758    0.94084   1.00
H2       0.11347    0.37453    0.91945   1.00
H2       0.15803    0.40704    0.93887   1.00
C4       0.18895    0.25582    0.95140   1.00
C5       0.23329    0.25101    0.96810   1.00
H2       0.28055    0.27740    0.96428   1.00
H2       0.22123    0.20430    0.96994   1.00
H2       0.22621    0.26864    0.98050   1.00
C3       0.10463    0.25661    0.92077   1.00
H1       0.07780    0.25802    0.91028   1.00
C3       0.15855    0.20313    0.93628   1.00
H1       0.16777    0.16755    0.93664   1.00
C2       0.11730    0.20360    0.92155   1.00
C2       0.21121    0.75315    0.99676   1.00
C3       0.21564    0.81370    0.99843   1.00
H1       0.23663    0.84008    0.00984   1.00
C3       0.18190    0.71612    0.97977   1.00
H1       0.17918    0.67405    0.97815   1.00
C4       0.19053    0.83895    0.98391   1.00
C5       0.19586    0.90838    0.98577   1.00
H2       0.23892    0.94281    0.98042   1.00
H2       0.19258    0.91786    0.99977   1.00
H2       0.15957    0.90840    0.97828   1.00
C4       0.15616    0.73949    0.96476   1.00
C5       0.12432    0.69754    0.94512   1.00
H2       0.07584    0.67045    0.94670   1.00
H2       0.14298    0.66841    0.94263   1.00
H2       0.13449    0.72802    0.93391   1.00
C6       0.16139    0.80219    0.96654   1.00
C6       0.13488    0.82814    0.95038   1.00
C4       0.17755    0.86929    0.93511   1.00
C5       0.24775    0.88072    0.93341   1.00
H2       0.27852    0.92094    0.94084   1.00
H2       0.26106    0.88653    0.91945   1.00
H2       0.24901    0.84197    0.93887   1.00
C4       0.06687    0.81105    0.95140   1.00
C5       0.01772    0.76671    0.96810   1.00
H2       0.99685    0.71945    0.96428   1.00
H2       0.98307    0.77877    0.96994   1.00
H2       0.04243    0.77379    0.98050   1.00
C3       0.15198    0.89537    0.92077   1.00
H1       0.18022    0.92220    0.91028   1.00
C3       0.04458    0.84145    0.93628   1.00
H1       0.99978    0.83223    0.93664   1.00
C2       0.08630    0.88270    0.92155   1.00
C2       0.21121    0.45806    0.49676   1.00
C3       0.21564    0.40194    0.49843   1.00
H1       0.23663    0.39655    0.50984   1.00
C3       0.18190    0.46578    0.47977   1.00
H1       0.17918    0.50513    0.47815   1.00
C4       0.19053    0.35158    0.48391   1.00
C5       0.19586    0.28748    0.48577   1.00
H2       0.23892    0.29611    0.48042   1.00
H2       0.19258    0.27472    0.49977   1.00
H2       0.15957    0.25117    0.47828   1.00
C4       0.15616    0.41667    0.46476   1.00
C5       0.12432    0.42678    0.44512   1.00
H2       0.07584    0.40539    0.44670   1.00
H2       0.14298    0.47457    0.44263   1.00
H2       0.13449    0.40647    0.43391   1.00
C6       0.16139    0.35920    0.46654   1.00
C6       0.13488    0.30674    0.45038   1.00
C4       0.17755    0.30826    0.43511   1.00
C5       0.24775    0.36703    0.43341   1.00
H2       0.27852    0.35758    0.44084   1.00
H2       0.26106    0.37453    0.41945   1.00
H2       0.24901    0.40704    0.43887   1.00
C4       0.06687    0.25582    0.45140   1.00
C5       0.01772    0.25101    0.46810   1.00
H2       0.99685    0.27740    0.46428   1.00
H2       0.98307    0.20430    0.46994   1.00
H2       0.04243    0.26864    0.48050   1.00
C3       0.15198    0.25661    0.42077   1.00
H1       0.18022    0.25802    0.41028   1.00
C3       0.04458    0.20313    0.43628   1.00
H1       0.99978    0.16755    0.43664   1.00
C2       0.08630    0.20360    0.42155   1.00
C2       0.54194    0.75315    0.49676   1.00
C3       0.59806    0.81370    0.49843   1.00
H1       0.60345    0.84008    0.50984   1.00
C3       0.53422    0.71612    0.47977   1.00
H1       0.49487    0.67405    0.47815   1.00
C4       0.64842    0.83895    0.48391   1.00
C5       0.71252    0.90838    0.48577   1.00
H2       0.70389    0.94281    0.48042   1.00
H2       0.72528    0.91786    0.49977   1.00
H2       0.74883    0.90840    0.47828   1.00
C4       0.58333    0.73949    0.46476   1.00
C5       0.57322    0.69754    0.44512   1.00
H2       0.59461    0.67045    0.44670   1.00
H2       0.52543    0.66841    0.44263   1.00
H2       0.59353    0.72802    0.43391   1.00
C6       0.64080    0.80219    0.46654   1.00
C6       0.69326    0.82814    0.45038   1.00
C4       0.69174    0.86929    0.43511   1.00
C5       0.63297    0.88072    0.43341   1.00
H2       0.64242    0.92094    0.44084   1.00
H2       0.62547    0.88653    0.41945   1.00
H2       0.59296    0.84197    0.43887   1.00
C4       0.74418    0.81105    0.45140   1.00
C5       0.74899    0.76671    0.46810   1.00
H2       0.72260    0.71945    0.46428   1.00
H2       0.79570    0.77877    0.46994   1.00
H2       0.73136    0.77379    0.48050   1.00
C3       0.74339    0.89537    0.42077   1.00
H1       0.74198    0.92220    0.41028   1.00
C3       0.79687    0.84145    0.43628   1.00
H1       0.83245    0.83223    0.43664   1.00
C2       0.79640    0.88270    0.42155   1.00
C2       0.24685    -0.21121   0.49676   1.00
C3       0.18630    -0.21564   0.49843   1.00
H1       0.15992    -0.23663   0.50984   1.00
C3       0.28388    -0.18190   0.47977   1.00
H1       0.32595    -0.17918   0.47815   1.00
C4       0.16105    -0.19053   0.48391   1.00
C5       0.09162    -0.19586   0.48577   1.00
H2       0.05719    -0.23892   0.48042   1.00
H2       0.08214    -0.19258   0.49977   1.00
H2       0.09160    -0.15957   0.47828   1.00
C4       0.26051    -0.15616   0.46476   1.00
C5       0.30246    -0.12432   0.44512   1.00
H2       0.32955    -0.07584   0.44670   1.00
H2       0.33159    -0.14298   0.44263   1.00
H2       0.27198    -0.13449   0.43391   1.00
C6       0.19781    -0.16139   0.46654   1.00
C6       0.17186    -0.13488   0.45038   1.00
C4       0.13071    -0.17755   0.43511   1.00
C5       0.11928    -0.24775   0.43341   1.00
H2       0.07906    -0.27852   0.44084   1.00
H2       0.11347    -0.26106   0.41945   1.00
H2       0.15803    -0.24901   0.43887   1.00
C4       0.18895    -0.06687   0.45140   1.00
C5       0.23329    -0.01772   0.46810   1.00
H2       0.28055    0.00315    0.46428   1.00
H2       0.22123    0.01693    0.46994   1.00
H2       0.22621    -0.04243   0.48050   1.00
C3       0.10463    -0.15198   0.42077   1.00
H1       0.07780    -0.18022   0.41028   1.00
C3       0.15855    -0.04458   0.43628   1.00
H1       0.16777    0.00022    0.43664   1.00
C2       0.11730    -0.08630   0.42155   1.00
C2       0.45806    0.21121    0.00324   1.00
C3       0.40194    0.21564    0.00157   1.00
H1       0.39655    0.23663    0.99016   1.00
C3       0.46578    0.18190    0.02023   1.00
H1       0.50513    0.17918    0.02185   1.00
C4       0.35158    0.19053    0.01609   1.00
C5       0.28748    0.19586    0.01423   1.00
H2       0.29611    0.23892    0.01958   1.00
H2       0.27472    0.19258    0.00023   1.00
H2       0.25117    0.15957    0.02172   1.00
C4       0.41667    0.15616    0.03524   1.00
C5       0.42678    0.12432    0.05488   1.00
H2       0.40539    0.07584    0.05330   1.00
H2       0.47457    0.14298    0.05737   1.00
H2       0.40647    0.13449    0.06609   1.00
C6       0.35920    0.16139    0.03346   1.00
C6       0.30674    0.13488    0.04962   1.00
C4       0.30826    0.17755    0.06489   1.00
C5       0.36703    0.24775    0.06659   1.00
H2       0.35758    0.27852    0.05916   1.00
H2       0.37453    0.26106    0.08055   1.00
H2       0.40704    0.24901    0.06113   1.00
C4       0.25582    0.06687    0.04860   1.00
C5       0.25101    0.01772    0.03190   1.00
H2       0.27740    0.99685    0.03572   1.00
H2       0.20430    0.98307    0.03006   1.00
H2       0.26864    0.04243    0.01950   1.00
C3       0.25661    0.15198    0.07923   1.00
H1       0.25802    0.18022    0.08972   1.00
C3       0.20313    0.04458    0.06372   1.00
H1       0.16755    0.99978    0.06336   1.00
C2       0.20360    0.08630    0.07845   1.00
C2       0.75315    0.54194    0.00324   1.00
C3       0.81370    0.59806    0.00157   1.00
H1       0.84008    0.60345    0.99016   1.00
C3       0.71612    0.53422    0.02023   1.00
H1       0.67405    0.49487    0.02185   1.00
C4       0.83895    0.64842    0.01609   1.00
C5       0.90838    0.71252    0.01423   1.00
H2       0.94281    0.70389    0.01958   1.00
H2       0.91786    0.72528    0.00023   1.00
H2       0.90840    0.74883    0.02172   1.00
C4       0.73949    0.58333    0.03524   1.00
C5       0.69754    0.57322    0.05488   1.00
H2       0.67045    0.59461    0.05330   1.00
H2       0.66841    0.52543    0.05737   1.00
H2       0.72802    0.59353    0.06609   1.00
C6       0.80219    0.64080    0.03346   1.00
C6       0.82814    0.69326    0.04962   1.00
C4       0.86929    0.69174    0.06489   1.00
C5       0.88072    0.63297    0.06659   1.00
H2       0.92094    0.64242    0.05916   1.00
H2       0.88653    0.62547    0.08055   1.00
H2       0.84197    0.59296    0.06113   1.00
C4       0.81105    0.74418    0.04860   1.00
C5       0.76671    0.74899    0.03190   1.00
H2       0.71945    0.72260    0.03572   1.00
H2       0.77877    0.79570    0.03006   1.00
H2       0.77379    0.73136    0.01950   1.00
C3       0.89537    0.74339    0.07923   1.00
H1       0.92220    0.74198    0.08972   1.00
C3       0.84145    0.79687    0.06372   1.00
H1       0.83223    0.83245    0.06336   1.00
C2       0.88270    0.79640    0.07845   1.00
C2       -0.21121   0.24685    0.00324   1.00
C3       -0.21564   0.18630    0.00157   1.00
H1       -0.23663   0.15992    0.99016   1.00
C3       -0.18190   0.28388    0.02023   1.00
H1       -0.17918   0.32595    0.02185   1.00
C4       -0.19053   0.16105    0.01609   1.00
C5       -0.19586   0.09162    0.01423   1.00
H2       -0.23892   0.05719    0.01958   1.00
H2       -0.19258   0.08214    0.00023   1.00
H2       -0.15957   0.09160    0.02172   1.00
C4       -0.15616   0.26051    0.03524   1.00
C5       -0.12432   0.30246    0.05488   1.00
H2       -0.07584   0.32955    0.05330   1.00
H2       -0.14298   0.33159    0.05737   1.00
H2       -0.13449   0.27198    0.06609   1.00
C6       -0.16139   0.19781    0.03346   1.00
C6       -0.13488   0.17186    0.04962   1.00
C4       -0.17755   0.13071    0.06489   1.00
C5       -0.24775   0.11928    0.06659   1.00
H2       -0.27852   0.07906    0.05916   1.00
H2       -0.26106   0.11347    0.08055   1.00
H2       -0.24901   0.15803    0.06113   1.00
C4       -0.06687   0.18895    0.04860   1.00
C5       -0.01772   0.23329    0.03190   1.00
H2       0.00315    0.28055    0.03572   1.00
H2       0.01693    0.22123    0.03006   1.00
H2       -0.04243   0.22621    0.01950   1.00
C3       -0.15198   0.10463    0.07923   1.00
H1       -0.18022   0.07780    0.08972   1.00
C3       -0.04458   0.15855    0.06372   1.00
H1       0.00022    0.16777    0.06336   1.00
C2       -0.08630   0.11730    0.07845   1.00
C2       0.45546    0.87527    0.83657   1.00
C3       0.45103    0.93139    0.83490   1.00
H1       0.43004    0.93678    0.82349   1.00
C3       0.48477    0.86755    0.85356   1.00
H1       0.48749    0.82820    0.85518   1.00
C4       0.47614    0.98175    0.84942   1.00
C5       0.47081    0.04585    0.84756   1.00
H2       0.42775    0.03722    0.85291   1.00
H2       0.47409    0.05861    0.83356   1.00
H2       0.50710    0.08216    0.85505   1.00
C4       0.51051    0.91666    0.86857   1.00
C5       0.54235    0.90655    0.88821   1.00
H2       0.59083    0.92794    0.88663   1.00
H2       0.52369    0.85876    0.89070   1.00
H2       0.53218    0.92686    0.89942   1.00
C6       0.50528    0.97413    0.86679   1.00
C6       0.53179    0.02659    0.88295   1.00
C4       0.48912    0.02507    0.89822   1.00
C5       0.41892    0.96630    0.89992   1.00
H2       0.38815    0.97575    0.89249   1.00
H2       0.40561    0.95880    0.91388   1.00
H2       0.41766    0.92629    0.89446   1.00
C4       0.59980    0.07751    0.88193   1.00
C5       0.64895    0.08232    0.86523   1.00
H2       0.66982    0.05593    0.86905   1.00
H2       0.68360    0.12903    0.86339   1.00
H2       0.62424    0.06469    0.85283   1.00
C3       0.51469    0.07672    0.91256   1.00
H1       0.48645    0.07531    0.92305   1.00
C3       0.62209    0.13020    0.89705   1.00
H1       0.66689    0.16578    0.89669   1.00
C2       0.58037    0.12973    0.91178   1.00
C2       0.12473    0.58018    0.83657   1.00
C3       0.06861    0.51963    0.83490   1.00
H1       0.06322    0.49325    0.82349   1.00
C3       0.13245    0.61721    0.85356   1.00
H1       0.17180    0.65928    0.85518   1.00
C4       0.01825    0.49438    0.84942   1.00
C5       0.95415    0.42495    0.84756   1.00
H2       0.96278    0.39052    0.85291   1.00
H2       0.94139    0.41547    0.83356   1.00
H2       0.91784    0.42493    0.85505   1.00
C4       0.08334    0.59384    0.86857   1.00
C5       0.09345    0.63579    0.88821   1.00
H2       0.07206    0.66288    0.88663   1.00
H2       0.14124    0.66492    0.89070   1.00
H2       0.07314    0.60531    0.89942   1.00
C6       0.02587    0.53114    0.86679   1.00
C6       0.97341    0.50519    0.88295   1.00
C4       0.97493    0.46404    0.89822   1.00
C5       0.03370    0.45261    0.89992   1.00
H2       0.02425    0.41239    0.89249   1.00
H2       0.04120    0.44680    0.91388   1.00
H2       0.07371    0.49136    0.89446   1.00
C4       0.92249    0.52228    0.88193   1.00
C5       0.91768    0.56662    0.86523   1.00
H2       0.94407    0.61388    0.86905   1.00
H2       0.87097    0.55456    0.86339   1.00
H2       0.93531    0.55954    0.85283   1.00
C3       0.92328    0.43796    0.91256   1.00
H1       0.92469    0.41113    0.92305   1.00
C3       0.86980    0.49188    0.89705   1.00
H1       0.83422    0.50110    0.89669   1.00
C2       0.87027    0.45063    0.91178   1.00
C2       0.41982    0.54454    0.83657   1.00
C3       0.48037    0.54897    0.83490   1.00
H1       0.50675    0.56996    0.82349   1.00
C3       0.38279    0.51523    0.85356   1.00
H1       0.34072    0.51251    0.85518   1.00
C4       0.50562    0.52386    0.84942   1.00
C5       0.57505    0.52919    0.84756   1.00
H2       0.60948    0.57225    0.85291   1.00
H2       0.58453    0.52591    0.83356   1.00
H2       0.57507    0.49290    0.85505   1.00
C4       0.40616    0.48949    0.86857   1.00
C5       0.36421    0.45765    0.88821   1.00
H2       0.33712    0.40917    0.88663   1.00
H2       0.33508    0.47631    0.89070   1.00
H2       0.39469    0.46782    0.89942   1.00
C6       0.46886    0.49472    0.86679   1.00
C6       0.49481    0.46821    0.88295   1.00
C4       0.53596    0.51088    0.89822   1.00
C5       0.54739    0.58108    0.89992   1.00
H2       0.58761    0.61185    0.89249   1.00
H2       0.55320    0.59439    0.91388   1.00
H2       0.50864    0.58234    0.89446   1.00
C4       0.47772    0.40020    0.88193   1.00
C5       0.43338    0.35105    0.86523   1.00
H2       0.38612    0.33018    0.86905   1.00
H2       0.44544    0.31640    0.86339   1.00
H2       0.44046    0.37576    0.85283   1.00
C3       0.56204    0.48531    0.91256   1.00
H1       0.58887    0.51355    0.92305   1.00
C3       0.50812    0.37791    0.89705   1.00
H1       0.49890    0.33311    0.89669   1.00
C2       0.54937    0.41963    0.91178   1.00
C2       0.20861    0.12212    0.33009   1.00
C3       0.26473    0.11769    0.33176   1.00
H1       0.27012    0.09670    0.34317   1.00
C3       0.20089    0.15143    0.31310   1.00
H1       0.16154    0.15415    0.31148   1.00
C4       0.31509    0.14280    0.31724   1.00
C5       0.37919    0.13747    0.31910   1.00
H2       0.37056    0.09441    0.31375   1.00
H2       0.39195    0.14075    0.33310   1.00
H2       0.41550    0.17376    0.31161   1.00
C4       0.25000    0.17717    0.29809   1.00
C5       0.23989    0.20901    0.27845   1.00
H2       0.26128    0.25749    0.28003   1.00
H2       0.19210    0.19035    0.27596   1.00
H2       0.26020    0.19884    0.26724   1.00
C6       0.30747    0.17194    0.29987   1.00
C6       0.35993    0.19845    0.28371   1.00
C4       0.35841    0.15578    0.26844   1.00
C5       0.29964    0.08558    0.26674   1.00
H2       0.30909    0.05481    0.27417   1.00
H2       0.29214    0.07227    0.25278   1.00
H2       0.25963    0.08432    0.27220   1.00
C4       0.41085    0.26646    0.28473   1.00
C5       0.41566    0.31561    0.30143   1.00
H2       0.38927    0.33648    0.29761   1.00
H2       0.46237    0.35026    0.30327   1.00
H2       0.39803    0.29090    0.31383   1.00
C3       0.41006    0.18135    0.25410   1.00
H1       0.40865    0.15311    0.24361   1.00
C3       0.46354    0.28875    0.26961   1.00
H1       0.49912    0.33355    0.26997   1.00
C2       0.46307    0.24703    0.25488   1.00
C2       0.91352    0.79139    0.33009   1.00
C3       0.85297    0.73527    0.33176   1.00
H1       0.82659    0.72988    0.34317   1.00
C3       0.95055    0.79911    0.31310   1.00
H1       0.99262    0.83846    0.31148   1.00
C4       0.82772    0.68491    0.31724   1.00
C5       0.75829    0.62081    0.31910   1.00
H2       0.72386    0.62944    0.31375   1.00
H2       0.74881    0.60805    0.33310   1.00
H2       0.75827    0.58450    0.31161   1.00
C4       0.92718    0.75000    0.29809   1.00
C5       0.96913    0.76011    0.27845   1.00
H2       0.99622    0.73872    0.28003   1.00
H2       0.99826    0.80790    0.27596   1.00
H2       0.93865    0.73980    0.26724   1.00
C6       0.86448    0.69253    0.29987   1.00
C6       0.83853    0.64007    0.28371   1.00
C4       0.79738    0.64159    0.26844   1.00
C5       0.78595    0.70036    0.26674   1.00
H2       0.74573    0.69091    0.27417   1.00
H2       0.78014    0.70786    0.25278   1.00
H2       0.82470    0.74037    0.27220   1.00
C4       0.85562    0.58915    0.28473   1.00
C5       0.89996    0.58434    0.30143   1.00
H2       0.94722    0.61073    0.29761   1.00
H2       0.88790    0.53763    0.30327   1.00
H2       0.89288    0.60197    0.31383   1.00
C3       0.77130    0.58994    0.25410   1.00
H1       0.74447    0.59135    0.24361   1.00
C3       0.82522    0.53646    0.26961   1.00
H1       0.83444    0.50088    0.26997   1.00
C2       0.78397    0.53693    0.25488   1.00
C2       0.87788    0.08648    0.33009   1.00
C3       0.88231    0.14703    0.33176   1.00
H1       0.90330    0.17341    0.34317   1.00
C3       0.84857    0.04945    0.31310   1.00
H1       0.84585    0.00738    0.31148   1.00
C4       0.85720    0.17228    0.31724   1.00
C5       0.86253    0.24171    0.31910   1.00
H2       0.90559    0.27614    0.31375   1.00
H2       0.85925    0.25119    0.33310   1.00
H2       0.82624    0.24173    0.31161   1.00
C4       0.82283    0.07282    0.29809   1.00
C5       0.79099    0.03087    0.27845   1.00
H2       0.74251    0.00378    0.28003   1.00
H2       0.80965    0.00174    0.27596   1.00
H2       0.80116    0.06135    0.26724   1.00
C6       0.82806    0.13552    0.29987   1.00
C6       0.80155    0.16147    0.28371   1.00
C4       0.84422    0.20262    0.26844   1.00
C5       0.91442    0.21405    0.26674   1.00
H2       0.94519    0.25427    0.27417   1.00
H2       0.92773    0.21986    0.25278   1.00
H2       0.91568    0.17530    0.27220   1.00
C4       0.73354    0.14438    0.28473   1.00
C5       0.68439    0.10004    0.30143   1.00
H2       0.66352    0.05278    0.29761   1.00
H2       0.64974    0.11210    0.30327   1.00
H2       0.70910    0.10712    0.31383   1.00
C3       0.81865    0.22870    0.25410   1.00
H1       0.84689    0.25553    0.24361   1.00
C3       0.71125    0.17478    0.26961   1.00
H1       0.66645    0.16556    0.26997   1.00
C2       0.75297    0.21603    0.25488   1.00
C2       0.87788    0.79139    0.83009   1.00
C3       0.88231    0.73527    0.83176   1.00
H1       0.90330    0.72988    0.84317   1.00
C3       0.84857    0.79911    0.81310   1.00
H1       0.84585    0.83846    0.81148   1.00
C4       0.85720    0.68491    0.81724   1.00
C5       0.86253    0.62081    0.81910   1.00
H2       0.90559    0.62944    0.81375   1.00
H2       0.85925    0.60805    0.83310   1.00
H2       0.82624    0.58450    0.81161   1.00
C4       0.82283    0.75000    0.79809   1.00
C5       0.79099    0.76011    0.77845   1.00
H2       0.74251    0.73872    0.78003   1.00
H2       0.80965    0.80790    0.77596   1.00
H2       0.80116    0.73980    0.76724   1.00
C6       0.82806    0.69253    0.79987   1.00
C6       0.80155    0.64007    0.78371   1.00
C4       0.84422    0.64159    0.76844   1.00
C5       0.91442    0.70036    0.76674   1.00
H2       0.94519    0.69091    0.77417   1.00
H2       0.92773    0.70786    0.75278   1.00
H2       0.91568    0.74037    0.77220   1.00
C4       0.73354    0.58915    0.78473   1.00
C5       0.68439    0.58434    0.80143   1.00
H2       0.66352    0.61073    0.79761   1.00
H2       0.64974    0.53763    0.80327   1.00
H2       0.70910    0.60197    0.81383   1.00
C3       0.81865    0.58994    0.75410   1.00
H1       0.84689    0.59135    0.74361   1.00
C3       0.71125    0.53646    0.76961   1.00
H1       0.66645    0.50088    0.76997   1.00
C2       0.75297    0.53693    0.75488   1.00
C2       0.20861    0.08648    0.83009   1.00
C3       0.26473    0.14703    0.83176   1.00
H1       0.27012    0.17341    0.84317   1.00
C3       0.20089    0.04945    0.81310   1.00
H1       0.16154    0.00738    0.81148   1.00
C4       0.31509    0.17228    0.81724   1.00
C5       0.37919    0.24171    0.81910   1.00
H2       0.37056    0.27614    0.81375   1.00
H2       0.39195    0.25119    0.83310   1.00
H2       0.41550    0.24173    0.81161   1.00
C4       0.25000    0.07282    0.79809   1.00
C5       0.23989    0.03087    0.77845   1.00
H2       0.26128    0.00378    0.78003   1.00
H2       0.19210    0.00174    0.77596   1.00
H2       0.26020    0.06135    0.76724   1.00
C6       0.30747    0.13552    0.79987   1.00
C6       0.35993    0.16147    0.78371   1.00
C4       0.35841    0.20262    0.76844   1.00
C5       0.29964    0.21405    0.76674   1.00
H2       0.30909    0.25427    0.77417   1.00
H2       0.29214    0.21986    0.75278   1.00
H2       0.25963    0.17530    0.77220   1.00
C4       0.41085    0.14438    0.78473   1.00
C5       0.41566    0.10004    0.80143   1.00
H2       0.38927    0.05278    0.79761   1.00
H2       0.46237    0.11210    0.80327   1.00
H2       0.39803    0.10712    0.81383   1.00
C3       0.41006    0.22870    0.75410   1.00
H1       0.40865    0.25553    0.74361   1.00
C3       0.46354    0.17478    0.76961   1.00
H1       0.49912    0.16556    0.76997   1.00
C2       0.46307    0.21603    0.75488   1.00
C2       0.91352    0.12212    0.83009   1.00
C3       0.85297    0.11769    0.83176   1.00
H1       0.82659    0.09670    0.84317   1.00
C3       0.95055    0.15143    0.81310   1.00
H1       0.99262    0.15415    0.81148   1.00
C4       0.82772    0.14280    0.81724   1.00
C5       0.75829    0.13747    0.81910   1.00
H2       0.72386    0.09441    0.81375   1.00
H2       0.74881    0.14075    0.83310   1.00
H2       0.75827    0.17376    0.81161   1.00
C4       0.92718    0.17717    0.79809   1.00
C5       0.96913    0.20901    0.77845   1.00
H2       0.99622    0.25749    0.78003   1.00
H2       0.99826    0.19035    0.77596   1.00
H2       0.93865    0.19884    0.76724   1.00
C6       0.86448    0.17194    0.79987   1.00
C6       0.83853    0.19845    0.78371   1.00
C4       0.79738    0.15578    0.76844   1.00
C5       0.78595    0.08558    0.76674   1.00
H2       0.74573    0.05481    0.77417   1.00
H2       0.78014    0.07227    0.75278   1.00
H2       0.82470    0.08432    0.77220   1.00
C4       0.85562    0.26646    0.78473   1.00
C5       0.89996    0.31561    0.80143   1.00
H2       0.94722    0.33648    0.79761   1.00
H2       0.88790    0.35026    0.80327   1.00
H2       0.89288    0.29090    0.81383   1.00
C3       0.77130    0.18135    0.75410   1.00
H1       0.74447    0.15311    0.74361   1.00
C3       0.82522    0.28875    0.76961   1.00
H1       0.83444    0.33355    0.76997   1.00
C2       0.78397    0.24703    0.75488   1.00
C2       0.12473    0.54454    0.33657   1.00
C3       0.06861    0.54897    0.33490   1.00
H1       0.06322    0.56996    0.32349   1.00
C3       0.13245    0.51523    0.35356   1.00
H1       0.17180    0.51251    0.35518   1.00
C4       0.01825    0.52386    0.34942   1.00
C5       0.95415    0.52919    0.34756   1.00
H2       0.96278    0.57225    0.35291   1.00
H2       0.94139    0.52591    0.33356   1.00
H2       0.91784    0.49290    0.35505   1.00
C4       0.08334    0.48949    0.36857   1.00
C5       0.09345    0.45765    0.38821   1.00
H2       0.07206    0.40917    0.38663   1.00
H2       0.14124    0.47631    0.39070   1.00
H2       0.07314    0.46782    0.39942   1.00
C6       0.02587    0.49472    0.36679   1.00
C6       0.97341    0.46821    0.38295   1.00
C4       0.97493    0.51088    0.39822   1.00
C5       0.03370    0.58108    0.39992   1.00
H2       0.02425    0.61185    0.39249   1.00
H2       0.04120    0.59439    0.41388   1.00
H2       0.07371    0.58234    0.39446   1.00
C4       0.92249    0.40020    0.38193   1.00
C5       0.91768    0.35105    0.36523   1.00
H2       0.94407    0.33018    0.36905   1.00
H2       0.87097    0.31640    0.36339   1.00
H2       0.93531    0.37576    0.35283   1.00
C3       0.92328    0.48531    0.41256   1.00
H1       0.92469    0.51355    0.42305   1.00
C3       0.86980    0.37791    0.39705   1.00
H1       0.83422    0.33311    0.39669   1.00
C2       0.87027    0.41963    0.41178   1.00
C2       0.41982    0.87527    0.33657   1.00
C3       0.48037    0.93139    0.33490   1.00
H1       0.50675    0.93678    0.32349   1.00
C3       0.38279    0.86755    0.35356   1.00
H1       0.34072    0.82820    0.35518   1.00
C4       0.50562    0.98175    0.34942   1.00
C5       0.57505    0.04585    0.34756   1.00
H2       0.60948    0.03722    0.35291   1.00
H2       0.58453    0.05861    0.33356   1.00
H2       0.57507    0.08216    0.35505   1.00
C4       0.40616    0.91666    0.36857   1.00
C5       0.36421    0.90655    0.38821   1.00
H2       0.33712    0.92794    0.38663   1.00
H2       0.33508    0.85876    0.39070   1.00
H2       0.39469    0.92686    0.39942   1.00
C6       0.46886    0.97413    0.36679   1.00
C6       0.49481    0.02659    0.38295   1.00
C4       0.53596    0.02507    0.39822   1.00
C5       0.54739    0.96630    0.39992   1.00
H2       0.58761    0.97575    0.39249   1.00
H2       0.55320    0.95880    0.41388   1.00
H2       0.50864    0.92629    0.39446   1.00
C4       0.47772    0.07751    0.38193   1.00
C5       0.43338    0.08232    0.36523   1.00
H2       0.38612    0.05593    0.36905   1.00
H2       0.44544    0.12903    0.36339   1.00
H2       0.44046    0.06469    0.35283   1.00
C3       0.56204    0.07672    0.41256   1.00
H1       0.58887    0.07531    0.42305   1.00
C3       0.50812    0.13020    0.39705   1.00
H1       0.49890    0.16578    0.39669   1.00
C2       0.54937    0.12973    0.41178   1.00
C2       0.45546    0.58018    0.33657   1.00
C3       0.45103    0.51963    0.33490   1.00
H1       0.43004    0.49325    0.32349   1.00
C3       0.48477    0.61721    0.35356   1.00
H1       0.48749    0.65928    0.35518   1.00
C4       0.47614    0.49438    0.34942   1.00
C5       0.47081    0.42495    0.34756   1.00
H2       0.42775    0.39052    0.35291   1.00
H2       0.47409    0.41547    0.33356   1.00
H2       0.50710    0.42493    0.35505   1.00
C4       0.51051    0.59384    0.36857   1.00
C5       0.54235    0.63579    0.38821   1.00
H2       0.59083    0.66288    0.38663   1.00
H2       0.52369    0.66492    0.39070   1.00
H2       0.53218    0.60531    0.39942   1.00
C6       0.50528    0.53114    0.36679   1.00
C6       0.53179    0.50519    0.38295   1.00
C4       0.48912    0.46404    0.39822   1.00
C5       0.41892    0.45261    0.39992   1.00
H2       0.38815    0.41239    0.39249   1.00
H2       0.40561    0.44680    0.41388   1.00
H2       0.41766    0.49136    0.39446   1.00
C4       0.59980    0.52228    0.38193   1.00
C5       0.64895    0.56662    0.36523   1.00
H2       0.66982    0.61388    0.36905   1.00
H2       0.68360    0.55456    0.36339   1.00
H2       0.62424    0.55954    0.35283   1.00
C3       0.51469    0.43796    0.41256   1.00
H1       0.48645    0.41113    0.42305   1.00
C3       0.62209    0.49188    0.39705   1.00
H1       0.66689    0.50110    0.39669   1.00
C2       0.58037    0.45063    0.41178   1.00
C2       0.12212    0.20861    0.16991   1.00
C3       0.11769    0.26473    0.16824   1.00
H1       0.09670    0.27012    0.15683   1.00
C3       0.15143    0.20089    0.18690   1.00
H1       0.15415    0.16154    0.18852   1.00
C4       0.14280    0.31509    0.18276   1.00
C5       0.13747    0.37919    0.18090   1.00
H2       0.09441    0.37056    0.18625   1.00
H2       0.14075    0.39195    0.16690   1.00
H2       0.17376    0.41550    0.18839   1.00
C4       0.17717    0.25000    0.20191   1.00
C5       0.20901    0.23989    0.22155   1.00
H2       0.25749    0.26128    0.21997   1.00
H2       0.19035    0.19210    0.22404   1.00
H2       0.19884    0.26020    0.23276   1.00
C6       0.17194    0.30747    0.20013   1.00
C6       0.19845    0.35993    0.21629   1.00
C4       0.15578    0.35841    0.23156   1.00
C5       0.08558    0.29964    0.23326   1.00
H2       0.05481    0.30909    0.22583   1.00
H2       0.07227    0.29214    0.24722   1.00
H2       0.08432    0.25963    0.22780   1.00
C4       0.26646    0.41085    0.21527   1.00
C5       0.31561    0.41566    0.19857   1.00
H2       0.33648    0.38927    0.20239   1.00
H2       0.35026    0.46237    0.19673   1.00
H2       0.29090    0.39803    0.18617   1.00
C3       0.18135    0.41006    0.24590   1.00
H1       0.15311    0.40865    0.25639   1.00
C3       0.28875    0.46354    0.23039   1.00
H1       0.33355    0.49912    0.23003   1.00
C2       0.24703    0.46307    0.24512   1.00
C2       0.79139    0.91352    0.16991   1.00
C3       0.73527    0.85297    0.16824   1.00
H1       0.72988    0.82659    0.15683   1.00
C3       0.79911    0.95055    0.18690   1.00
H1       0.83846    0.99262    0.18852   1.00
C4       0.68491    0.82772    0.18276   1.00
C5       0.62081    0.75829    0.18090   1.00
H2       0.62944    0.72386    0.18625   1.00
H2       0.60805    0.74881    0.16690   1.00
H2       0.58450    0.75827    0.18839   1.00
C4       0.75000    0.92718    0.20191   1.00
C5       0.76011    0.96913    0.22155   1.00
H2       0.73872    0.99622    0.21997   1.00
H2       0.80790    0.99826    0.22404   1.00
H2       0.73980    0.93865    0.23276   1.00
C6       0.69253    0.86448    0.20013   1.00
C6       0.64007    0.83853    0.21629   1.00
C4       0.64159    0.79738    0.23156   1.00
C5       0.70036    0.78595    0.23326   1.00
H2       0.69091    0.74573    0.22583   1.00
H2       0.70786    0.78014    0.24722   1.00
H2       0.74037    0.82470    0.22780   1.00
C4       0.58915    0.85562    0.21527   1.00
C5       0.58434    0.89996    0.19857   1.00
H2       0.61073    0.94722    0.20239   1.00
H2       0.53763    0.88790    0.19673   1.00
H2       0.60197    0.89288    0.18617   1.00
C3       0.58994    0.77130    0.24590   1.00
H1       0.59135    0.74447    0.25639   1.00
C3       0.53646    0.82522    0.23039   1.00
H1       0.50088    0.83444    0.23003   1.00
C2       0.53693    0.78397    0.24512   1.00
C2       0.08648    0.87788    0.16991   1.00
C3       0.14703    0.88231    0.16824   1.00
H1       0.17341    0.90330    0.15683   1.00
C3       0.04945    0.84857    0.18690   1.00
H1       0.00738    0.84585    0.18852   1.00
C4       0.17228    0.85720    0.18276   1.00
C5       0.24171    0.86253    0.18090   1.00
H2       0.27614    0.90559    0.18625   1.00
H2       0.25119    0.85925    0.16690   1.00
H2       0.24173    0.82624    0.18839   1.00
C4       0.07282    0.82283    0.20191   1.00
C5       0.03087    0.79099    0.22155   1.00
H2       0.00378    0.74251    0.21997   1.00
H2       0.00174    0.80965    0.22404   1.00
H2       0.06135    0.80116    0.23276   1.00
C6       0.13552    0.82806    0.20013   1.00
C6       0.16147    0.80155    0.21629   1.00
C4       0.20262    0.84422    0.23156   1.00
C5       0.21405    0.91442    0.23326   1.00
H2       0.25427    0.94519    0.22583   1.00
H2       0.21986    0.92773    0.24722   1.00
H2       0.17530    0.91568    0.22780   1.00
C4       0.14438    0.73354    0.21527   1.00
C5       0.10004    0.68439    0.19857   1.00
H2       0.05278    0.66352    0.20239   1.00
H2       0.11210    0.64974    0.19673   1.00
H2       0.10712    0.70910    0.18617   1.00
C3       0.22870    0.81865    0.24590   1.00
H1       0.25553    0.84689    0.25639   1.00
C3       0.17478    0.71125    0.23039   1.00
H1       0.16556    0.66645    0.23003   1.00
C2       0.21603    0.75297    0.24512   1.00
C2       0.87527    0.45546    0.66343   1.00
C3       0.93139    0.45103    0.66510   1.00
H1       0.93678    0.43004    0.67651   1.00
C3       0.86755    0.48477    0.64644   1.00
H1       0.82820    0.48749    0.64482   1.00
C4       0.98175    0.47614    0.65058   1.00
C5       0.04585    0.47081    0.65244   1.00
H2       0.03722    0.42775    0.64709   1.00
H2       0.05861    0.47409    0.66644   1.00
H2       0.08216    0.50710    0.64495   1.00
C4       0.91666    0.51051    0.63143   1.00
C5       0.90655    0.54235    0.61179   1.00
H2       0.92794    0.59083    0.61337   1.00
H2       0.85876    0.52369    0.60930   1.00
H2       0.92686    0.53218    0.60058   1.00
C6       0.97413    0.50528    0.63321   1.00
C6       0.02659    0.53179    0.61705   1.00
C4       0.02507    0.48912    0.60178   1.00
C5       0.96630    0.41892    0.60008   1.00
H2       0.97575    0.38815    0.60751   1.00
H2       0.95880    0.40561    0.58612   1.00
H2       0.92629    0.41766    0.60554   1.00
C4       0.07751    0.59980    0.61807   1.00
C5       0.08232    0.64895    0.63477   1.00
H2       0.05593    0.66982    0.63095   1.00
H2       0.12903    0.68360    0.63661   1.00
H2       0.06469    0.62424    0.64717   1.00
C3       0.07672    0.51469    0.58744   1.00
H1       0.07531    0.48645    0.57695   1.00
C3       0.13020    0.62209    0.60295   1.00
H1       0.16578    0.66689    0.60331   1.00
C2       0.12973    0.58037    0.58822   1.00
C2       0.58018    0.12473    0.66343   1.00
C3       0.51963    0.06861    0.66510   1.00
H1       0.49325    0.06322    0.67651   1.00
C3       0.61721    0.13245    0.64644   1.00
H1       0.65928    0.17180    0.64482   1.00
C4       0.49438    0.01825    0.65058   1.00
C5       0.42495    0.95415    0.65244   1.00
H2       0.39052    0.96278    0.64709   1.00
H2       0.41547    0.94139    0.66644   1.00
H2       0.42493    0.91784    0.64495   1.00
C4       0.59384    0.08334    0.63143   1.00
C5       0.63579    0.09345    0.61179   1.00
H2       0.66288    0.07206    0.61337   1.00
H2       0.66492    0.14124    0.60930   1.00
H2       0.60531    0.07314    0.60058   1.00
C6       0.53114    0.02587    0.63321   1.00
C6       0.50519    0.97341    0.61705   1.00
C4       0.46404    0.97493    0.60178   1.00
C5       0.45261    0.03370    0.60008   1.00
H2       0.41239    0.02425    0.60751   1.00
H2       0.44680    0.04120    0.58612   1.00
H2       0.49136    0.07371    0.60554   1.00
C4       0.52228    0.92249    0.61807   1.00
C5       0.56662    0.91768    0.63477   1.00
H2       0.61388    0.94407    0.63095   1.00
H2       0.55456    0.87097    0.63661   1.00
H2       0.55954    0.93531    0.64717   1.00
C3       0.43796    0.92328    0.58744   1.00
H1       0.41113    0.92469    0.57695   1.00
C3       0.49188    0.86980    0.60295   1.00
H1       0.50110    0.83422    0.60331   1.00
C2       0.45063    0.87027    0.58822   1.00
C2       0.54454    0.41982    0.66343   1.00
C3       0.54897    0.48037    0.66510   1.00
H1       0.56996    0.50675    0.67651   1.00
C3       0.51523    0.38279    0.64644   1.00
H1       0.51251    0.34072    0.64482   1.00
C4       0.52386    0.50562    0.65058   1.00
C5       0.52919    0.57505    0.65244   1.00
H2       0.57225    0.60948    0.64709   1.00
H2       0.52591    0.58453    0.66644   1.00
H2       0.49290    0.57507    0.64495   1.00
C4       0.48949    0.40616    0.63143   1.00
C5       0.45765    0.36421    0.61179   1.00
H2       0.40917    0.33712    0.61337   1.00
H2       0.47631    0.33508    0.60930   1.00
H2       0.46782    0.39469    0.60058   1.00
C6       0.49472    0.46886    0.63321   1.00
C6       0.46821    0.49481    0.61705   1.00
C4       0.51088    0.53596    0.60178   1.00
C5       0.58108    0.54739    0.60008   1.00
H2       0.61185    0.58761    0.60751   1.00
H2       0.59439    0.55320    0.58612   1.00
H2       0.58234    0.50864    0.60554   1.00
C4       0.40020    0.47772    0.61807   1.00
C5       0.35105    0.43338    0.63477   1.00
H2       0.33018    0.38612    0.63095   1.00
H2       0.31640    0.44544    0.63661   1.00
H2       0.37576    0.44046    0.64717   1.00
C3       0.48531    0.56204    0.58744   1.00
H1       0.51355    0.58887    0.57695   1.00
C3       0.37791    0.50812    0.60295   1.00
H1       0.33311    0.49890    0.60331   1.00
C2       0.41963    0.54937    0.58822   1.00
C2       0.54454    0.12473    0.16343   1.00
C3       0.54897    0.06861    0.16510   1.00
H1       0.56996    0.06322    0.17651   1.00
C3       0.51523    0.13245    0.14644   1.00
H1       0.51251    0.17180    0.14482   1.00
C4       0.52386    0.01825    0.15058   1.00
C5       0.52919    0.95415    0.15244   1.00
H2       0.57225    0.96278    0.14709   1.00
H2       0.52591    0.94139    0.16644   1.00
H2       0.49290    0.91784    0.14495   1.00
C4       0.48949    0.08334    0.13143   1.00
C5       0.45765    0.09345    0.11179   1.00
H2       0.40917    0.07206    0.11337   1.00
H2       0.47631    0.14124    0.10930   1.00
H2       0.46782    0.07314    0.10058   1.00
C6       0.49472    0.02587    0.13321   1.00
C6       0.46821    0.97341    0.11705   1.00
C4       0.51088    0.97493    0.10178   1.00
C5       0.58108    0.03370    0.10008   1.00
H2       0.61185    0.02425    0.10751   1.00
H2       0.59439    0.04120    0.08612   1.00
H2       0.58234    0.07371    0.10554   1.00
C4       0.40020    0.92249    0.11807   1.00
C5       0.35105    0.91768    0.13477   1.00
H2       0.33018    0.94407    0.13095   1.00
H2       0.31640    0.87097    0.13661   1.00
H2       0.37576    0.93531    0.14717   1.00
C3       0.48531    0.92328    0.08744   1.00
H1       0.51355    0.92469    0.07695   1.00
C3       0.37791    0.86980    0.10295   1.00
H1       0.33311    0.83422    0.10331   1.00
C2       0.41963    0.87027    0.08822   1.00
C2       0.87527    0.41982    0.16343   1.00
C3       0.93139    0.48037    0.16510   1.00
H1       0.93678    0.50675    0.17651   1.00
C3       0.86755    0.38279    0.14644   1.00
H1       0.82820    0.34072    0.14482   1.00
C4       0.98175    0.50562    0.15058   1.00
C5       0.04585    0.57505    0.15244   1.00
H2       0.03722    0.60948    0.14709   1.00
H2       0.05861    0.58453    0.16644   1.00
H2       0.08216    0.57507    0.14495   1.00
C4       0.91666    0.40616    0.13143   1.00
C5       0.90655    0.36421    0.11179   1.00
H2       0.92794    0.33712    0.11337   1.00
H2       0.85876    0.33508    0.10930   1.00
H2       0.92686    0.39469    0.10058   1.00
C6       0.97413    0.46886    0.13321   1.00
C6       0.02659    0.49481    0.11705   1.00
C4       0.02507    0.53596    0.10178   1.00
C5       0.96630    0.54739    0.10008   1.00
H2       0.97575    0.58761    0.10751   1.00
H2       0.95880    0.55320    0.08612   1.00
H2       0.92629    0.50864    0.10554   1.00
C4       0.07751    0.47772    0.11807   1.00
C5       0.08232    0.43338    0.13477   1.00
H2       0.05593    0.38612    0.13095   1.00
H2       0.12903    0.44544    0.13661   1.00
H2       0.06469    0.44046    0.14717   1.00
C3       0.07672    0.56204    0.08744   1.00
H1       0.07531    0.58887    0.07695   1.00
C3       0.13020    0.50812    0.10295   1.00
H1       0.16578    0.49890    0.10331   1.00
C2       0.12973    0.54937    0.08822   1.00
C2       0.58018    0.45546    0.16343   1.00
C3       0.51963    0.45103    0.16510   1.00
H1       0.49325    0.43004    0.17651   1.00
C3       0.61721    0.48477    0.14644   1.00
H1       0.65928    0.48749    0.14482   1.00
C4       0.49438    0.47614    0.15058   1.00
C5       0.42495    0.47081    0.15244   1.00
H2       0.39052    0.42775    0.14709   1.00
H2       0.41547    0.47409    0.16644   1.00
H2       0.42493    0.50710    0.14495   1.00
C4       0.59384    0.51051    0.13143   1.00
C5       0.63579    0.54235    0.11179   1.00
H2       0.66288    0.59083    0.11337   1.00
H2       0.66492    0.52369    0.10930   1.00
H2       0.60531    0.53218    0.10058   1.00
C6       0.53114    0.50528    0.13321   1.00
C6       0.50519    0.53179    0.11705   1.00
C4       0.46404    0.48912    0.10178   1.00
C5       0.45261    0.41892    0.10008   1.00
H2       0.41239    0.38815    0.10751   1.00
H2       0.44680    0.40561    0.08612   1.00
H2       0.49136    0.41766    0.10554   1.00
C4       0.52228    0.59980    0.11807   1.00
C5       0.56662    0.64895    0.13477   1.00
H2       0.61388    0.66982    0.13095   1.00
H2       0.55456    0.68360    0.13661   1.00
H2       0.55954    0.62424    0.14717   1.00
C3       0.43796    0.51469    0.08744   1.00
H1       0.41113    0.48645    0.07695   1.00
C3       0.49188    0.62209    0.10295   1.00
H1       0.50110    0.66689    0.10331   1.00
C2       0.45063    0.58037    0.08822   1.00
C2       0.79139    0.87788    0.66991   1.00
C3       0.73527    0.88231    0.66824   1.00
H1       0.72988    0.90330    0.65683   1.00
C3       0.79911    0.84857    0.68690   1.00
H1       0.83846    0.84585    0.68852   1.00
C4       0.68491    0.85720    0.68276   1.00
C5       0.62081    0.86253    0.68090   1.00
H2       0.62944    0.90559    0.68625   1.00
H2       0.60805    0.85925    0.66690   1.00
H2       0.58450    0.82624    0.68839   1.00
C4       0.75000    0.82283    0.70191   1.00
C5       0.76011    0.79099    0.72155   1.00
H2       0.73872    0.74251    0.71997   1.00
H2       0.80790    0.80965    0.72404   1.00
H2       0.73980    0.80116    0.73276   1.00
C6       0.69253    0.82806    0.70013   1.00
C6       0.64007    0.80155    0.71629   1.00
C4       0.64159    0.84422    0.73156   1.00
C5       0.70036    0.91442    0.73326   1.00
H2       0.69091    0.94519    0.72583   1.00
H2       0.70786    0.92773    0.74722   1.00
H2       0.74037    0.91568    0.72780   1.00
C4       0.58915    0.73354    0.71527   1.00
C5       0.58434    0.68439    0.69857   1.00
H2       0.61073    0.66352    0.70239   1.00
H2       0.53763    0.64974    0.69673   1.00
H2       0.60197    0.70910    0.68617   1.00
C3       0.58994    0.81865    0.74590   1.00
H1       0.59135    0.84689    0.75639   1.00
C3       0.53646    0.71125    0.73039   1.00
H1       0.50088    0.66645    0.73003   1.00
C2       0.53693    0.75297    0.74512   1.00
C2       0.08648    0.20861    0.66991   1.00
C3       0.14703    0.26473    0.66824   1.00
H1       0.17341    0.27012    0.65683   1.00
C3       0.04945    0.20089    0.68690   1.00
H1       0.00738    0.16154    0.68852   1.00
C4       0.17228    0.31509    0.68276   1.00
C5       0.24171    0.37919    0.68090   1.00
H2       0.27614    0.37056    0.68625   1.00
H2       0.25119    0.39195    0.66690   1.00
H2       0.24173    0.41550    0.68839   1.00
C4       0.07282    0.25000    0.70191   1.00
C5       0.03087    0.23989    0.72155   1.00
H2       0.00378    0.26128    0.71997   1.00
H2       0.00174    0.19210    0.72404   1.00
H2       0.06135    0.26020    0.73276   1.00
C6       0.13552    0.30747    0.70013   1.00
C6       0.16147    0.35993    0.71629   1.00
C4       0.20262    0.35841    0.73156   1.00
C5       0.21405    0.29964    0.73326   1.00
H2       0.25427    0.30909    0.72583   1.00
H2       0.21986    0.29214    0.74722   1.00
H2       0.17530    0.25963    0.72780   1.00
C4       0.14438    0.41085    0.71527   1.00
C5       0.10004    0.41566    0.69857   1.00
H2       0.05278    0.38927    0.70239   1.00
H2       0.11210    0.46237    0.69673   1.00
H2       0.10712    0.39803    0.68617   1.00
C3       0.22870    0.41006    0.74590   1.00
H1       0.25553    0.40865    0.75639   1.00
C3       0.17478    0.46354    0.73039   1.00
H1       0.16556    0.49912    0.73003   1.00
C2       0.21603    0.46307    0.74512   1.00
C2       0.12212    0.91352    0.66991   1.00
C3       0.11769    0.85297    0.66824   1.00
H1       0.09670    0.82659    0.65683   1.00
C3       0.15143    0.95055    0.68690   1.00
H1       0.15415    0.99262    0.68852   1.00
C4       0.14280    0.82772    0.68276   1.00
C5       0.13747    0.75829    0.68090   1.00
H2       0.09441    0.72386    0.68625   1.00
H2       0.14075    0.74881    0.66690   1.00
H2       0.17376    0.75827    0.68839   1.00
C4       0.17717    0.92718    0.70191   1.00
C5       0.20901    0.96913    0.72155   1.00
H2       0.25749    0.99622    0.71997   1.00
H2       0.19035    0.99826    0.72404   1.00
H2       0.19884    0.93865    0.73276   1.00
C6       0.17194    0.86448    0.70013   1.00
C6       0.19845    0.83853    0.71629   1.00
C4       0.15578    0.79738    0.73156   1.00
C5       0.08558    0.78595    0.73326   1.00
H2       0.05481    0.74573    0.72583   1.00
H2       0.07227    0.78014    0.74722   1.00
H2       0.08432    0.82470    0.72780   1.00
C4       0.26646    0.85562    0.71527   1.00
C5       0.31561    0.89996    0.69857   1.00
H2       0.33648    0.94722    0.70239   1.00
H2       0.35026    0.88790    0.69673   1.00
H2       0.29090    0.89288    0.68617   1.00
C3       0.18135    0.77130    0.74590   1.00
H1       0.15311    0.74447    0.75639   1.00
C3       0.28875    0.82522    0.73039   1.00
H1       0.33355    0.83444    0.73003   1.00
C2       0.24703    0.78397    0.74512   1.00
