data_IRMOF10_interpen_symm_ligand4lp_label_k_1.

_audit_creation_method             'generated by an auxiliary program of Tobunporous'

_symmetry_space_group_name_H-M     'P 1'
_symmetry_Int_Tables_number        1
_symmetry_cell_setting             triclinic

_cell_length_a                    22.6523
_cell_length_b                    22.6523
_cell_length_c                    65.9502
_cell_angle_alpha                 90.0000
_cell_angle_beta                  90.0000
_cell_angle_gamma                 120.0000

loop_
_atom_site_label
_atom_site_fract_x
_atom_site_fract_y
_atom_site_fract_z
_atom_site_occupancy
O1       0.00000    -0.00000   0.62500   1.00
Zn1      0.00000    -0.00000   0.59589   1.00
Zn1      0.94848    1.04288    0.63392   1.00
Zn1      0.09439    0.05152    0.63392   1.00
Zn1      -0.04288   0.90561    0.63392   1.00
O2       0.93860    0.02610    0.58587   1.00
O2       0.08750    0.06140    0.58587   1.00
O2       -0.02610   0.91250    0.58587   1.00
O2       0.91305    0.07161    0.61181   1.00
O2       0.00462    0.12022    0.65110   1.00
O2       0.87413    0.98074    0.65071   1.00
O2       0.15856    0.08695    0.61181   1.00
O2       0.10660    0.12587    0.65071   1.00
O2       0.11559    0.99538    0.65110   1.00
O2       -0.07161   0.84144    0.61181   1.00
O2       0.87978    0.88441    0.65110   1.00
O2       0.01926    0.89340    0.65071   1.00
C1       0.91390    0.06020    0.59358   1.00
C1       0.14630    0.08610    0.59358   1.00
C1       -0.06020   0.85370    0.59358   1.00
C1       0.06663    0.14397    0.65673   1.00
C1       0.85603    0.92267    0.65673   1.00
C1       0.07733    0.93337    0.65673   1.00
O1       -0.00000   0.00000    0.87500   1.00
Zn1      -0.00000   0.00000    0.90411   1.00
Zn1      1.04288    0.94848    0.86608   1.00
Zn1      0.05152    0.09439    0.86608   1.00
Zn1      0.90561    -0.04288   0.86608   1.00
O2       0.02610    0.93860    0.91413   1.00
O2       0.06140    0.08750    0.91413   1.00
O2       0.91250    -0.02610   0.91413   1.00
O2       0.07161    0.91305    0.88819   1.00
O2       0.12022    0.00462    0.84890   1.00
O2       0.98074    0.87413    0.84929   1.00
O2       0.08695    0.15856    0.88819   1.00
O2       0.12587    0.10660    0.84929   1.00
O2       0.99538    0.11559    0.84890   1.00
O2       0.84144    -0.07161   0.88819   1.00
O2       0.88441    0.87978    0.84890   1.00
O2       0.89340    0.01926    0.84929   1.00
C1       0.06020    0.91390    0.90642   1.00
C1       0.08610    0.14630    0.90642   1.00
C1       0.85370    -0.06020   0.90642   1.00
C1       0.14397    0.06663    0.84327   1.00
C1       0.92267    0.85603    0.84327   1.00
C1       0.93337    0.07733    0.84327   1.00
O1       0.00000    0.00000    0.37500   1.00
Zn1      0.00000    0.00000    0.40411   1.00
Zn1      0.05152    -0.04288   0.36608   1.00
Zn1      0.90561    0.94848    0.36608   1.00
Zn1      1.04288    0.09439    0.36608   1.00
O2       0.06140    -0.02610   0.41413   1.00
O2       0.91250    0.93860    0.41413   1.00
O2       0.02610    0.08750    0.41413   1.00
O2       0.08695    -0.07161   0.38819   1.00
O2       0.99538    0.87978    0.34890   1.00
O2       0.12587    0.01926    0.34929   1.00
O2       0.84144    0.91305    0.38819   1.00
O2       0.89340    0.87413    0.34929   1.00
O2       0.88441    0.00462    0.34890   1.00
O2       0.07161    0.15856    0.38819   1.00
O2       0.12022    0.11559    0.34890   1.00
O2       0.98074    0.10660    0.34929   1.00
C1       0.08610    -0.06020   0.40642   1.00
C1       0.85370    0.91390    0.40642   1.00
C1       0.06020    0.14630    0.40642   1.00
C1       0.93337    0.85603    0.34327   1.00
C1       0.14397    0.07733    0.34327   1.00
C1       0.92267    0.06663    0.34327   1.00
O1       0.00000    0.00000    0.12500   1.00
Zn1      0.00000    0.00000    0.09589   1.00
Zn1      -0.04288   0.05152    0.13392   1.00
Zn1      0.94848    0.90561    0.13392   1.00
Zn1      0.09439    1.04288    0.13392   1.00
O2       -0.02610   0.06140    0.08587   1.00
O2       0.93860    0.91250    0.08587   1.00
O2       0.08750    0.02610    0.08587   1.00
O2       -0.07161   0.08695    0.11181   1.00
O2       0.87978    0.99538    0.15110   1.00
O2       0.01926    0.12587    0.15071   1.00
O2       0.91305    0.84144    0.11181   1.00
O2       0.87413    0.89340    0.15071   1.00
O2       0.00462    0.88441    0.15110   1.00
O2       0.15856    0.07161    0.11181   1.00
O2       0.11559    0.12022    0.15110   1.00
O2       0.10660    0.98074    0.15071   1.00
C1       -0.06020   0.08610    0.09358   1.00
C1       0.91390    0.85370    0.09358   1.00
C1       0.14630    0.06020    0.09358   1.00
C1       0.85603    0.93337    0.15673   1.00
C1       0.07733    0.14397    0.15673   1.00
C1       0.06663    0.92267    0.15673   1.00
O1       0.66667    0.33333    0.95833   1.00
Zn1      0.66667    0.33333    0.92922   1.00
Zn1      0.61515    0.37621    0.96725   1.00
Zn1      0.76106    0.38485    0.96725   1.00
Zn1      -0.37621   0.23894    0.96725   1.00
O2       0.60527    0.35943    0.91920   1.00
O2       0.75417    0.39473    0.91920   1.00
O2       0.64057    0.24583    0.91920   1.00
O2       0.57972    0.40494    0.94514   1.00
O2       0.67129    0.45355    0.98443   1.00
O2       0.54080    0.31407    0.98404   1.00
O2       0.82523    0.42028    0.94514   1.00
O2       0.77327    0.45920    0.98404   1.00
O2       -0.21774   0.32871    0.98443   1.00
O2       0.59506    0.17477    0.94514   1.00
O2       0.54645    0.21774    0.98443   1.00
O2       -0.31407   0.22673    0.98404   1.00
C1       0.58057    0.39353    0.92691   1.00
C1       0.81297    0.41943    0.92691   1.00
C1       0.60647    0.18703    0.92691   1.00
C1       0.73330    0.47730    0.99006   1.00
C1       0.52270    0.25600    0.99006   1.00
C1       -0.25600   0.26670    0.99006   1.00
O1       0.66667    0.33333    0.20833   1.00
Zn1      0.66667    0.33333    0.23744   1.00
Zn1      0.70954    0.28182    0.19942   1.00
Zn1      0.71818    0.42773    0.19942   1.00
Zn1      0.57227    0.29046    0.19942   1.00
O2       0.69277    0.27193    0.24746   1.00
O2       0.72807    0.42083    0.24746   1.00
O2       0.57917    0.30723    0.24746   1.00
O2       0.73828    0.24638    0.22152   1.00
O2       0.78688    0.33796    0.18224   1.00
O2       0.64740    0.20747    0.18263   1.00
O2       0.75362    0.49189    0.22152   1.00
O2       0.79253    0.43994    0.18263   1.00
O2       0.66204    0.44893    0.18224   1.00
O2       0.50811    0.26172    0.22152   1.00
O2       0.55107    0.21312    0.18224   1.00
O2       0.56006    0.35260    0.18263   1.00
C1       0.72687    0.24723    0.23975   1.00
C1       0.75277    0.47963    0.23975   1.00
C1       0.52037    0.27313    0.23975   1.00
C1       0.81063    0.39997    0.17661   1.00
C1       0.58933    0.18937    0.17661   1.00
C1       0.60003    0.41067    0.17661   1.00
O1       0.66667    0.33333    0.70833   1.00
Zn1      0.66667    0.33333    0.73744   1.00
Zn1      0.71818    0.29046    0.69942   1.00
Zn1      0.57227    0.28182    0.69942   1.00
Zn1      0.70954    0.42773    0.69942   1.00
O2       0.72807    0.30723    0.74746   1.00
O2       0.57917    0.27193    0.74746   1.00
O2       0.69277    0.42083    0.74746   1.00
O2       0.75362    0.26172    0.72152   1.00
O2       0.66204    0.21312    0.68224   1.00
O2       0.79253    0.35260    0.68263   1.00
O2       0.50811    0.24638    0.72152   1.00
O2       0.56006    0.20747    0.68263   1.00
O2       0.55107    0.33796    0.68224   1.00
O2       0.73828    0.49189    0.72152   1.00
O2       0.78688    0.44893    0.68224   1.00
O2       0.64740    0.43994    0.68263   1.00
C1       0.75277    0.27313    0.73975   1.00
C1       0.52037    0.24723    0.73975   1.00
C1       0.72687    0.47963    0.73975   1.00
C1       0.60003    0.18937    0.67661   1.00
C1       0.81063    0.41067    0.67661   1.00
C1       0.58933    0.39997    0.67661   1.00
O1       0.66667    0.33333    0.45833   1.00
Zn1      0.66667    0.33333    0.42922   1.00
Zn1      -0.37621   0.38485    0.46725   1.00
Zn1      0.61515    0.23894    0.46725   1.00
Zn1      0.76106    0.37621    0.46725   1.00
O2       0.64057    0.39473    0.41920   1.00
O2       0.60527    0.24583    0.41920   1.00
O2       0.75417    0.35943    0.41920   1.00
O2       0.59506    0.42028    0.44514   1.00
O2       0.54645    0.32871    0.48443   1.00
O2       -0.31407   0.45920    0.48404   1.00
O2       0.57972    0.17477    0.44514   1.00
O2       0.54080    0.22673    0.48404   1.00
O2       0.67129    0.21774    0.48443   1.00
O2       0.82523    0.40494    0.44514   1.00
O2       -0.21774   0.45355    0.48443   1.00
O2       0.77327    0.31407    0.48404   1.00
C1       0.60647    0.41943    0.42691   1.00
C1       0.58057    0.18703    0.42691   1.00
C1       0.81297    0.39353    0.42691   1.00
C1       0.52270    0.26670    0.49006   1.00
C1       -0.25600   0.47730    0.49006   1.00
C1       0.73330    0.25600    0.49006   1.00
O1       0.33333    0.66667    0.29167   1.00
Zn1      0.33333    0.66667    0.26256   1.00
Zn1      0.28182    0.70954    0.30058   1.00
Zn1      0.42773    0.71818    0.30058   1.00
Zn1      0.29046    0.57227    0.30058   1.00
O2       0.27193    0.69277    0.25254   1.00
O2       0.42083    0.72807    0.25254   1.00
O2       0.30723    0.57917    0.25254   1.00
O2       0.24638    0.73828    0.27848   1.00
O2       0.33796    0.78688    0.31776   1.00
O2       0.20747    0.64740    0.31737   1.00
O2       0.49189    0.75362    0.27848   1.00
O2       0.43994    0.79253    0.31737   1.00
O2       0.44893    0.66204    0.31776   1.00
O2       0.26172    0.50811    0.27848   1.00
O2       0.21312    0.55107    0.31776   1.00
O2       0.35260    0.56006    0.31737   1.00
C1       0.24723    0.72687    0.26025   1.00
C1       0.47963    0.75277    0.26025   1.00
C1       0.27313    0.52037    0.26025   1.00
C1       0.39997    0.81063    0.32339   1.00
C1       0.18937    0.58933    0.32339   1.00
C1       0.41067    0.60003    0.32339   1.00
O1       0.33333    0.66667    0.54167   1.00
Zn1      0.33333    0.66667    0.57078   1.00
Zn1      0.37621    0.61515    0.53275   1.00
Zn1      0.38485    0.76106    0.53275   1.00
Zn1      0.23894    -0.37621   0.53275   1.00
O2       0.35943    0.60527    0.58080   1.00
O2       0.39473    0.75417    0.58080   1.00
O2       0.24583    0.64057    0.58080   1.00
O2       0.40494    0.57972    0.55486   1.00
O2       0.45355    0.67129    0.51557   1.00
O2       0.31407    0.54080    0.51596   1.00
O2       0.42028    0.82523    0.55486   1.00
O2       0.45920    0.77327    0.51596   1.00
O2       0.32871    -0.21774   0.51557   1.00
O2       0.17477    0.59506    0.55486   1.00
O2       0.21774    0.54645    0.51557   1.00
O2       0.22673    -0.31407   0.51596   1.00
C1       0.39353    0.58057    0.57309   1.00
C1       0.41943    0.81297    0.57309   1.00
C1       0.18703    0.60647    0.57309   1.00
C1       0.47730    0.73330    0.50994   1.00
C1       0.25600    0.52270    0.50994   1.00
C1       0.26670    -0.25600   0.50994   1.00
O1       0.33333    0.66667    0.04167   1.00
Zn1      0.33333    0.66667    0.07078   1.00
Zn1      0.38485    -0.37621   0.03275   1.00
Zn1      0.23894    0.61515    0.03275   1.00
Zn1      0.37621    0.76106    0.03275   1.00
O2       0.39473    0.64057    0.08080   1.00
O2       0.24583    0.60527    0.08080   1.00
O2       0.35943    0.75417    0.08080   1.00
O2       0.42028    0.59506    0.05486   1.00
O2       0.32871    0.54645    0.01557   1.00
O2       0.45920    -0.31407   0.01596   1.00
O2       0.17477    0.57972    0.05486   1.00
O2       0.22673    0.54080    0.01596   1.00
O2       0.21774    0.67129    0.01557   1.00
O2       0.40494    0.82523    0.05486   1.00
O2       0.45355    -0.21774   0.01557   1.00
O2       0.31407    0.77327    0.01596   1.00
C1       0.41943    0.60647    0.07309   1.00
C1       0.18703    0.58057    0.07309   1.00
C1       0.39353    0.81297    0.07309   1.00
C1       0.26670    0.52270    0.00994   1.00
C1       0.47730    -0.25600   0.00994   1.00
C1       0.25600    0.73330    0.00994   1.00
O1       0.33333    0.66667    0.79167   1.00
Zn1      0.33333    0.66667    0.76256   1.00
Zn1      0.29046    0.71818    0.80058   1.00
Zn1      0.28182    0.57227    0.80058   1.00
Zn1      0.42773    0.70954    0.80058   1.00
O2       0.30723    0.72807    0.75254   1.00
O2       0.27193    0.57917    0.75254   1.00
O2       0.42083    0.69277    0.75254   1.00
O2       0.26172    0.75362    0.77848   1.00
O2       0.21312    0.66204    0.81776   1.00
O2       0.35260    0.79253    0.81737   1.00
O2       0.24638    0.50811    0.77848   1.00
O2       0.20747    0.56006    0.81737   1.00
O2       0.33796    0.55107    0.81776   1.00
O2       0.49189    0.73828    0.77848   1.00
O2       0.44893    0.78688    0.81776   1.00
O2       0.43994    0.64740    0.81737   1.00
C1       0.27313    0.75277    0.76025   1.00
C1       0.24723    0.52037    0.76025   1.00
C1       0.47963    0.72687    0.76025   1.00
C1       0.18937    0.60003    0.82339   1.00
C1       0.41067    0.81063    0.82339   1.00
C1       0.39997    0.58933    0.82339   1.00
C4       -0.16394   0.64063    0.53478   1.00
C4       -0.14215   0.69182    0.55015   1.00
C3       -0.14669   0.58814    0.53519   1.00
C3       -0.10780   0.68999    0.56804   1.00
C3       -0.20450   0.64122    0.51824   1.00
C3       -0.15484   0.74729    0.54781   1.00
C2       -0.21079   0.53513    0.50424   1.00
C2       -0.09507   0.79708    0.58077   1.00
C3       -0.16961   0.53676    0.52046   1.00
C3       -0.08463   0.74112    0.58286   1.00
C3       -0.22712   0.58775    0.50361   1.00
C3       -0.13007   0.79851    0.56319   1.00
H1       -0.11625   0.58567    0.54610   1.00
H1       -0.09894   0.65108    0.57108   1.00
C5       -0.22111   0.69440    0.51655   1.00
C5       -0.19169   0.75039    0.53053   1.00
H1       -0.15562   0.50019    0.52166   1.00
H1       -0.05996   0.73697    0.59538   1.00
H1       -0.25643   0.58616    0.49171   1.00
H1       -0.13770   0.83898    0.56199   1.00
C6       -0.26998   0.69037    0.50021   1.00
C6       -0.19839   0.81293    0.52716   1.00
H2       -0.31287   0.63840    0.49948   1.00
H2       -0.14933   0.85841    0.53007   1.00
H2       -0.29518   0.71878    0.50435   1.00
H2       -0.20636   0.81944    0.51125   1.00
C6       -0.23514   0.71568    0.47898   1.00
C6       -0.25686   0.81250    0.54000   1.00
H2       -0.20160   0.69488    0.47599   1.00
H2       -0.25516   0.79621    0.55550   1.00
C6       -0.28277   0.69991    0.46012   1.00
C6       -0.25886   0.88052    0.54126   1.00
H2       -0.20139   0.77084    0.47991   1.00
H2       -0.30543   0.77294    0.53381   1.00
C6       -0.32491   0.62228    0.45574   1.00
C6       -0.19635   0.93671    0.55286   1.00
C6       -0.33188   0.72834    0.46285   1.00
C6       -0.26222   0.90733    0.51991   1.00
C6       -0.23767   0.73475    0.44123   1.00
C6       -0.32386   0.86663    0.55309   1.00
H2       -0.29174   0.60042    0.45407   1.00
H2       -0.19190   0.91895    0.56788   1.00
H2       -0.36090   0.59503    0.46791   1.00
H2       -0.14903   0.95202    0.54471   1.00
H2       -0.35434   0.61214    0.44179   1.00
H2       -0.20058   0.98228    0.55488   1.00
H2       -0.36141   0.72140    0.44907   1.00
H2       -0.26851   0.95197    0.52098   1.00
H2       -0.36795   0.70215    0.47511   1.00
H2       -0.21551   0.92232    0.51143   1.00
H2       -0.30357   0.78268    0.46637   1.00
H2       -0.30498   0.86821    0.51126   1.00
H2       -0.20243   0.71588    0.43849   1.00
H2       -0.32369   0.84822    0.56839   1.00
H2       -0.26867   0.72480    0.42761   1.00
H2       -0.32732   0.91286    0.55449   1.00
H2       -0.20763   0.78992    0.44323   1.00
H2       -0.36989   0.82830    0.54542   1.00
C4       0.35651    0.19121    0.53390   1.00
C4       0.30415    0.16163    0.54893   1.00
C3       0.42499    0.24106    0.53873   1.00
C3       0.31801    0.17440    0.57006   1.00
C3       0.34066    0.17083    0.51317   1.00
C3       0.23502    0.11737    0.54289   1.00
C2       0.46315    0.24861    0.50368   1.00
C2       0.19789    0.10451    0.57927   1.00
C3       0.47684    0.26871    0.52413   1.00
C3       0.26656    0.14705    0.58478   1.00
C3       0.39502    0.19994    0.49878   1.00
C3       0.18408    0.09086    0.55835   1.00
H1       0.43964    0.25966    0.55301   1.00
H1       0.36610    0.20351    0.57555   1.00
C5       0.27205    0.12298    0.50725   1.00
C5       0.21831    0.10034    0.52192   1.00
H1       0.52527    0.30427    0.52860   1.00
H1       0.27986    0.15843    0.59976   1.00
H1       0.38586    0.18638    0.48392   1.00
H1       0.13430    0.05959    0.55464   1.00
C6       0.25739    0.09644    0.48568   1.00
C6       0.14428    0.05942    0.51553   1.00
H2       0.29622    0.08437    0.48091   1.00
H2       0.11528    0.07897    0.52341   1.00
H2       0.21134    0.04684    0.48476   1.00
H2       0.13738    0.06876    0.49978   1.00
C6       0.25134    0.14642    0.47050   1.00
C6       0.11261    -0.01925   0.51884   1.00
H2       0.29240    0.19852    0.47336   1.00
H2       0.12778    -0.02858   0.53370   1.00
C6       0.25144    0.13184    0.44729   1.00
C6       0.03330    -0.06491   0.51708   1.00
H2       0.20431    0.14664    0.47403   1.00
H2       0.13597    -0.03747   0.50784   1.00
C6       0.32109    0.14134    0.44030   1.00
C6       -0.00384   -0.04968   0.53431   1.00
C6       0.19408    0.05905    0.44168   1.00
C6       0.00691    -0.05581   0.49630   1.00
C6       0.23882    0.18355    0.43530   1.00
C6       0.01415    -0.14078   0.51906   1.00
H2       0.36282    0.19190    0.44434   1.00
H2       0.01447    -0.05458   0.54919   1.00
H2       0.33133    0.10370    0.44721   1.00
H2       0.00399    0.00171    0.53310   1.00
H2       0.32225    0.13572    0.42389   1.00
H2       -0.05873   -0.08492   0.53379   1.00
H2       0.19148    0.05111    0.42529   1.00
H2       -0.04766   -0.09135   0.49467   1.00
H2       0.20306    0.02055    0.44862   1.00
H2       0.01491    -0.00440   0.49470   1.00
H2       0.14463    0.05053    0.44681   1.00
H2       0.03329    -0.06484   0.48389   1.00
H2       0.27842    0.23589    0.43856   1.00
H2       0.03105    -0.15015   0.53360   1.00
H2       0.23889    0.17570    0.41897   1.00
H2       -0.04092   -0.17475   0.51806   1.00
H2       0.18967    0.17841    0.43927   1.00
H2       0.03777    -0.15506   0.50704   1.00
C4       0.80918    0.15844    0.53180   1.00
C4       0.83623    0.13239    0.54664   1.00
C3       0.83400    0.22956    0.52935   1.00
C3       0.89454    0.17568    0.55859   1.00
C3       0.75515    0.11233    0.51879   1.00
C3       0.80447    0.06044    0.54984   1.00
C2       0.75680    0.21135    0.50113   1.00
C2       0.88898    0.08000    0.57735   1.00
C3       0.80894    0.25535    0.51443   1.00
C3       0.92000    0.15043    0.57355   1.00
C3       0.73130    0.14069    0.50372   1.00
C3       0.83175    0.03681    0.56531   1.00
H1       0.87077    0.26526    0.53846   1.00
H1       0.92112    0.22713    0.55672   1.00
C5       0.72612    0.04007    0.52109   1.00
C5       0.74735    0.01415    0.53769   1.00
H1       0.82919    0.30719    0.51340   1.00
H1       0.96207    0.18434    0.58171   1.00
H1       0.69327    0.10957    0.49410   1.00
H1       0.81028    -0.01396   0.56813   1.00
C6       0.67411    -0.00778   0.50587   1.00
C6       0.70981    -0.06121   0.54269   1.00
H2       0.69113    0.01223    0.49064   1.00
H2       0.70272    -0.06756   0.55905   1.00
H2       0.67307    -0.05624   0.50511   1.00
H2       0.65741    -0.08631   0.53734   1.00
C6       0.60017    -0.02158   0.51015   1.00
C6       0.74567    -0.09982   0.53405   1.00
H2       0.60208    0.02639    0.51386   1.00
H2       0.80054    -0.06967   0.53683   1.00
C6       0.54550    -0.05758   0.49310   1.00
C6       0.72037    -0.17387   0.54196   1.00
H2       0.58180    -0.05245   0.52391   1.00
H2       0.74015    -0.10182   0.51756   1.00
C6       0.56226    -0.01192   0.47400   1.00
C6       0.73643    -0.17436   0.56481   1.00
C6       0.53846    -0.12686   0.48697   1.00
C6       0.64286    -0.22094   0.53843   1.00
C6       0.47539    -0.07148   0.50129   1.00
C6       0.75841    -0.20410   0.53010   1.00
H2       0.56866    0.03784    0.47788   1.00
H2       0.79065    -0.14071   0.56786   1.00
H2       0.60898    -0.00354   0.46671   1.00
H2       0.70796    -0.15763   0.57418   1.00
H2       0.52152    -0.03541   0.46277   1.00
H2       0.72293    -0.22552   0.56984   1.00
H2       0.49691    -0.15374   0.47615   1.00
H2       0.62669    -0.27349   0.54265   1.00
H2       0.58502    -0.11960   0.47981   1.00
H2       0.61344    -0.20461   0.54754   1.00
H2       0.52806    -0.15946   0.50022   1.00
H2       0.62996    -0.22040   0.52251   1.00
H2       0.47738    -0.02399   0.50566   1.00
H2       0.81347    -0.17308   0.53226   1.00
H2       0.43551    -0.09623   0.48986   1.00
H2       0.74276    -0.25576   0.53519   1.00
H2       0.46005    -0.10466   0.51458   1.00
H2       0.74797    -0.20639   0.51387   1.00
C4       0.65129    -0.15667   0.96835   1.00
C4       0.70418    -0.13028   0.95344   1.00
C3       0.61427    -0.22714   0.97358   1.00
C3       0.72858    -0.17102   0.94429   1.00
C3       0.63401    -0.11163   0.97855   1.00
C3       0.73448    -0.06056   0.94728   1.00
C2       0.54662    -0.20958   0.99920   1.00
C2       0.80880    -0.07788   0.92257   1.00
C3       0.56375    -0.25286   0.98860   1.00
C3       0.77904    -0.14584   0.92925   1.00
C3       0.58250    -0.13979   0.99383   1.00
C3       0.78547    -0.03699   0.93184   1.00
H1       0.62215    -0.26254   0.96653   1.00
H1       0.71108    -0.22035   0.94835   1.00
C5       0.66751    -0.04067   0.97333   1.00
C5       0.71406    -0.01628   0.95656   1.00
H1       0.53911    -0.30415   0.99172   1.00
H1       0.79422    -0.17791   0.92319   1.00
H1       0.56912    -0.10931   1.00151   1.00
H1       0.80788    0.01213    0.92696   1.00
C6       0.65393    0.00762    0.98571   1.00
C6       0.74123    0.05521    0.94840   1.00
H2       0.65398    -0.00384   1.00176   1.00
H2       0.73968    0.05340    0.93189   1.00
H2       0.69621    0.05970    0.98488   1.00
H2       0.70706    0.07464    0.95175   1.00
C6       0.58665    0.00661    0.97944   1.00
C6       0.81429    0.10717    0.95647   1.00
H2       0.54580    -0.04610   0.97736   1.00
H2       0.84652    0.08393    0.95588   1.00
C6       0.55951    0.04250    0.99394   1.00
C6       0.85357    0.17826    0.94574   1.00
H2       0.59483    0.03012    0.96447   1.00
H2       0.80973    0.11562    0.97257   1.00
C6       0.53620    0.00522    1.01463   1.00
C6       0.87190    0.17164    0.92350   1.00
C6       0.61385    0.11815    0.99762   1.00
C6       0.81206    0.21571    0.94604   1.00
C6       0.49655    0.04057    0.98389   1.00
C6       0.92139    0.22308    0.95730   1.00
H2       0.49860    -0.04864   1.01253   1.00
H2       0.90029    0.14440    0.92274   1.00
H2       0.57891    0.00826    1.02310   1.00
H2       0.82642    0.14418    0.91417   1.00
H2       0.51303    0.02773    1.02408   1.00
H2       0.90330    0.22168    0.91660   1.00
H2       0.59286    0.14397    1.00655   1.00
H2       0.84181    0.26710    0.93984   1.00
H2       0.65740    0.12231    1.00593   1.00
H2       0.76591    0.18862    0.93693   1.00
H2       0.63218    0.14524    0.98327   1.00
H2       0.79726    0.21978    0.96150   1.00
H2       0.45625    -0.01188   0.98115   1.00
H2       0.95304    0.19922    0.95735   1.00
H2       0.47543    0.06470    0.99353   1.00
H2       0.95094    0.27324    0.95028   1.00
H2       0.51007    0.06734    0.96938   1.00
H2       0.91179    0.23080    0.97303   1.00
C4       0.19123    0.35653    0.96609   1.00
C4       0.16164    0.30418    0.95106   1.00
C3       0.24127    0.42496    0.96127   1.00
C3       0.17461    0.31801    0.92994   1.00
C3       0.17067    0.34073    0.98681   1.00
C3       0.11719    0.23509    0.95709   1.00
C2       0.24864    0.46316    0.99631   1.00
C2       0.10452    0.19792    0.92072   1.00
C3       0.26892    0.47681    0.97588   1.00
C3       0.14726    0.26656    0.91521   1.00
C3       0.19979    0.39509    1.00120   1.00
C3       0.09067    0.18414    0.94163   1.00
H1       0.26000    0.43956    0.94701   1.00
H1       0.20388    0.36609    0.92445   1.00
C5       0.12261    0.27217    0.99272   1.00
C5       0.09995    0.21840    0.97805   1.00
H1       0.30462    0.52519    0.97141   1.00
H1       0.15879    0.27984    0.90024   1.00
H1       0.18610    0.38596    1.01606   1.00
H1       0.05926    0.13438    0.94534   1.00
C6       0.09590    0.25757    1.01427   1.00
C6       0.05881    0.14439    0.98444   1.00
H2       0.08393    0.29651    1.01901   1.00
H2       0.07830    0.11528    0.97660   1.00
H2       0.04622    0.21162    1.01517   1.00
H2       0.06798    0.13746    1.00021   1.00
C6       0.14565    0.25135    1.02951   1.00
C6       -0.01980   0.11294    0.98108   1.00
H2       0.19782    0.29231    1.02668   1.00
H2       -0.02895   0.12815    0.96620   1.00
C6       0.13091    0.25151    1.05270   1.00
C6       -0.06567   0.03364    0.98283   1.00
H2       0.14575    0.20425    1.02600   1.00
H2       -0.03801   0.13639    0.99204   1.00
C6       0.14056    0.32125    1.05966   1.00
C6       -0.05045   -0.00362   0.96563   1.00
C6       0.05800    0.19431    1.05827   1.00
C6       -0.05684   0.00718    1.00363   1.00
C6       0.18239    0.23871    1.06474   1.00
C6       -0.14146   0.01471    0.98079   1.00
H2       0.19122    0.36288    1.05565   1.00
H2       -0.05516   0.01474    0.95073   1.00
H2       0.10307    0.33163    1.05271   1.00
H2       0.00087    0.00406    0.96689   1.00
H2       0.13482    0.32243    1.07607   1.00
H2       -0.08582   -0.05848   0.96614   1.00
H2       0.04994    0.19173    1.07465   1.00
H2       -0.09252   -0.04735   1.00526   1.00
H2       0.01965    0.20342    1.05128   1.00
H2       -0.00550   0.01503    1.00527   1.00
H2       0.04938    0.14480    1.05315   1.00
H2       -0.06587   0.03364    1.01602   1.00
H2       0.23481    0.27820    1.06151   1.00
H2       -0.15064   0.03167    0.96623   1.00
H2       0.17442    0.23881    1.08107   1.00
H2       -0.17557   -0.04034   0.98178   1.00
H2       0.17713    0.18949    1.06079   1.00
H2       -0.15573   0.03842    0.99278   1.00
C4       0.15844    0.80918    0.96820   1.00
C4       0.13240    0.83623    0.95336   1.00
C3       0.22956    0.83399    0.97064   1.00
C3       0.17568    0.89453    0.94141   1.00
C3       0.11234    0.75517    0.98121   1.00
C3       0.06044    0.80449    0.95016   1.00
C2       0.21136    0.75681    0.99887   1.00
C2       0.08000    0.88899    0.92265   1.00
C3       0.25535    0.80893    0.98556   1.00
C3       0.15044    0.91999    0.92644   1.00
C3       0.14070    0.73132    0.99629   1.00
C3       0.03682    0.83177    0.93470   1.00
H1       0.26526    0.87074    0.96154   1.00
H1       0.22714    0.92109    0.94327   1.00
C5       0.04008    0.72615    0.97892   1.00
C5       0.01415    0.74739    0.96231   1.00
H1       0.30719    0.82916    0.98659   1.00
H1       0.18435    0.96205    0.91828   1.00
H1       0.10958    0.69330    1.00591   1.00
H1       -0.01396   0.81031    0.93188   1.00
C6       -0.00778   0.67416    0.99415   1.00
C6       -0.06122   0.70986    0.95733   1.00
H2       0.01225    0.69119    1.00938   1.00
H2       -0.06758   0.70276    0.94096   1.00
H2       -0.05623   0.67314    0.99491   1.00
H2       -0.08632   0.65746    0.96268   1.00
C6       -0.02160   0.60022    0.98987   1.00
C6       -0.09979   0.74574    0.96597   1.00
H2       0.02637    0.60210    0.98616   1.00
H2       -0.06964   0.80061    0.96318   1.00
C6       -0.05759   0.54556    1.00692   1.00
C6       -0.17385   0.72046    0.95806   1.00
H2       -0.05248   0.58183    0.97611   1.00
H2       -0.10179   0.74024    0.98245   1.00
C6       -0.01192   0.56232    1.02602   1.00
C6       -0.17436   0.73650    0.93521   1.00
C6       -0.12686   0.53854    1.01306   1.00
C6       -0.22094   0.64295    0.96160   1.00
C6       -0.07152   0.47544    0.99873   1.00
C6       -0.20406   0.75852    0.96992   1.00
H2       0.03783    0.56870    1.02214   1.00
H2       -0.14069   0.79072    0.93216   1.00
H2       -0.00352   0.60906    1.03330   1.00
H2       -0.15764   0.70801    0.92584   1.00
H2       -0.03541   0.52160    1.03725   1.00
H2       -0.22551   0.72301    0.93019   1.00
H2       -0.15374   0.49701    1.02388   1.00
H2       -0.27348   0.62679    0.95738   1.00
H2       -0.11958   0.58512    1.02021   1.00
H2       -0.20462   0.61351    0.95249   1.00
H2       -0.15947   0.52814    0.99981   1.00
H2       -0.22038   0.63006    0.97751   1.00
H2       -0.02405   0.47741    0.99437   1.00
H2       -0.17302   0.81358    0.96776   1.00
H2       -0.09627   0.43557    1.01017   1.00
H2       -0.25572   0.74288    0.96484   1.00
H2       -0.10471   0.46010    0.98545   1.00
H2       -0.20634   0.74809    0.98615   1.00
C4       0.16207    0.36015    0.46496   1.00
C4       0.13711    0.31028    0.44916   1.00
C3       0.22420    0.37950    0.47542   1.00
C3       0.17584    0.28161    0.44127   1.00
C3       0.12408    0.39235    0.47074   1.00
C3       0.07103    0.28770    0.44072   1.00
C2       0.21431    0.46340    0.49624   1.00
C2       0.08533    0.20699    0.41789   1.00
C3       0.24980    0.42977    0.49052   1.00
C3       0.15072    0.23129    0.42619   1.00
C3       0.15210    0.44357    0.48611   1.00
C3       0.04718    0.23609    0.42546   1.00
H1       0.25284    0.35731    0.47261   1.00
H1       0.22402    0.29670    0.44605   1.00
C5       0.05977    0.37295    0.46135   1.00
C5       0.03083    0.31675    0.44744   1.00
H1       0.29504    0.44161    0.49743   1.00
H1       0.18107    0.21247    0.42121   1.00
H1       0.12682    0.46794    0.49054   1.00
H1       0.00028    0.21839    0.41919   1.00
C6       0.02371    0.41243    0.46606   1.00
C6       -0.04174   0.28731    0.43995   1.00
H2       0.06087    0.46679    0.46601   1.00
H2       -0.06685   0.23184    0.44032   1.00
H2       -0.01017   0.40869    0.45383   1.00
H2       -0.07270   0.29705    0.45053   1.00
C6       -0.01770   0.38987    0.48639   1.00
C6       -0.04652   0.31414    0.41845   1.00
H2       0.01290    0.38389    0.49817   1.00
H2       -0.00825   0.31375    0.40843   1.00
C6       -0.04432   0.43663    0.49508   1.00
C6       -0.11691   0.27634    0.40728   1.00
H2       -0.06143   0.33887    0.48409   1.00
H2       -0.03177   0.36782    0.42000   1.00
C6       0.01519    0.50701    0.50184   1.00
C6       -0.13661   0.20228    0.40154   1.00
C6       -0.08921   0.44744    0.47948   1.00
C6       -0.17459   0.27501    0.42026   1.00
C6       -0.08872   0.40150    0.51407   1.00
C6       -0.11142   0.31507    0.38730   1.00
H2       0.04850    0.50111    0.51262   1.00
H2       -0.09638   0.20139    0.39264   1.00
H2       0.04617    0.53635    0.48898   1.00
H2       -0.14544   0.17090    0.41496   1.00
H2       -0.00391   0.53740    0.50915   1.00
H2       -0.18331   0.17797    0.39255   1.00
H2       -0.11146   0.47599    0.48616   1.00
H2       -0.22236   0.25294    0.41179   1.00
H2       -0.05923   0.47618    0.46638   1.00
H2       -0.18377   0.24436    0.43389   1.00
H2       -0.13070   0.39861    0.47415   1.00
H2       -0.16136   0.32646    0.42487   1.00
H2       -0.05916   0.39331    0.52568   1.00
H2       -0.07177   0.31686    0.37745   1.00
H2       -0.10817   0.43250    0.52078   1.00
H2       -0.15933   0.29029    0.37886   1.00
H2       -0.13245   0.35204    0.51019   1.00
H2       -0.09895   0.36742    0.39037   1.00
C4       0.65025    0.80980    0.46807   1.00
C4       0.70149    0.83921    0.45271   1.00
C3       0.65425    0.77068    0.48439   1.00
C3       0.76357    0.83770    0.45375   1.00
C3       0.59240    0.81924    0.46730   1.00
C3       0.69116    0.87169    0.43557   1.00
C2       0.54837    0.75310    0.49968   1.00
C2       0.80368    0.89573    0.42118   1.00
C3       0.60511    0.74344    0.49978   1.00
C3       0.81303    0.86475    0.43844   1.00
C3       0.54368    0.79097    0.48333   1.00
C3       0.74262    0.89827    0.42025   1.00
H1       0.69267    0.75995    0.48559   1.00
H1       0.77549    0.81748    0.46577   1.00
C5       0.58412    0.85570    0.45078   1.00
C5       0.63098    0.87732    0.43410   1.00
H1       0.61107    0.71594    0.51118   1.00
H1       0.85659    0.86180    0.44005   1.00
H1       0.50210    0.79701    0.48339   1.00
H1       0.73690    0.92132    0.40777   1.00
C6       0.52661    0.87154    0.45129   1.00
C6       0.61732    0.90524    0.41490   1.00
H2       0.52336    0.88889    0.46645   1.00
H2       0.62846    0.88304    0.40181   1.00
H2       0.53821    0.91604    0.44216   1.00
H2       0.56324    0.88686    0.41286   1.00
C6       0.45651    0.81027    0.44425   1.00
C6       0.65716    0.98512    0.41398   1.00
H2       0.44900    0.76315    0.45118   1.00
H2       0.70979    1.00450    0.41890   1.00
C6       0.39099    0.81515    0.44837   1.00
C6       0.65912    1.01932    0.39316   1.00
H2       0.45982    0.80357    0.42796   1.00
H2       0.63486    1.00350    0.42529   1.00
C6       0.37633    0.81381    0.47141   1.00
C6       0.69986    1.00462    0.37698   1.00
C6       0.39648    0.88026    0.43885   1.00
C6       0.58643    0.99552    0.38503   1.00
C6       0.32901    0.75239    0.43859   1.00
C6       0.69561    1.09775    0.39625   1.00
H2       0.37327    0.76897    0.47865   1.00
H2       0.75111    1.01983    0.38240   1.00
H2       0.41600    0.85885    0.47906   1.00
H2       0.67469    0.95066    0.37314   1.00
H2       0.32811    0.81245    0.47408   1.00
H2       0.70497    1.03248    0.36298   1.00
H2       0.34877    0.88074    0.44055   1.00
H2       0.58827    1.02325    0.37128   1.00
H2       0.43644    0.92601    0.44618   1.00
H2       0.56010    0.94140    0.38128   1.00
H2       0.40821    0.88318    0.42271   1.00
H2       0.55618    1.00399    0.39631   1.00
H2       0.32240    0.70493    0.44496   1.00
H2       0.74756    1.11733    0.40180   1.00
H2       0.28183    0.75326    0.44118   1.00
H2       0.69866    1.12402    0.38207   1.00
H2       0.33569    0.75123    0.42223   1.00
H2       0.66844    1.11150    0.40723   1.00
C4       0.19143    -0.16530   0.46603   1.00
C4       0.16467    -0.14261   0.45013   1.00
C3       0.16180    -0.18185   0.48575   1.00
C3       0.10247    -0.14173   0.45216   1.00
C3       0.25009    -0.17191   0.46234   1.00
C3       0.20076    -0.11984   0.43135   1.00
C2       0.24346    -0.21440   0.49791   1.00
C2       0.11221    -0.09358   0.41834   1.00
C3       0.18671    -0.20598   0.50120   1.00
C3       0.07711    -0.11767   0.43682   1.00
C3       0.27365    -0.19701   0.47845   1.00
C3       0.17340    -0.09538   0.41614   1.00
H1       0.12141    -0.17635   0.48970   1.00
H1       0.07290    -0.15917   0.46480   1.00
C5       0.28385    -0.15330   0.44306   1.00
C5       0.26216    -0.12222   0.42808   1.00
H1       0.16290    -0.21728   0.51507   1.00
H1       0.03210    -0.11811   0.43926   1.00
H1       0.31494    -0.20285   0.47637   1.00
H1       0.19784    -0.07834   0.40265   1.00
C6       0.34130    -0.16737   0.43867   1.00
C6       0.30360    -0.09127   0.40903   1.00
H2       0.32700    -0.21822   0.44413   1.00
H2       0.30695    -0.04229   0.40616   1.00
H2       0.34705    -0.17238   0.42250   1.00
H2       0.35689    -0.07619   0.41121   1.00
C6       0.41157    -0.11187   0.44759   1.00
C6       0.27540    -0.13959   0.39014   1.00
H2       0.40434    -0.09928   0.46306   1.00
H2       0.21993    -0.16288   0.38953   1.00
C6       0.47088    -0.12850   0.44797   1.00
C6       0.30442    -0.10790   0.36882   1.00
H2       0.42855    -0.06507   0.43888   1.00
H2       0.28481    -0.18190   0.39259   1.00
C6       0.45533    -0.18799   0.46270   1.00
C6       0.28372    -0.05459   0.36269   1.00
C6       0.48558    -0.14623   0.42656   1.00
C6       0.38311    -0.07423   0.36810   1.00
C6       0.53658    -0.06454   0.45564   1.00
C6       0.27414    -0.16582   0.35276   1.00
H2       0.44363    -0.17752   0.47789   1.00
H2       0.22846    -0.07649   0.36336   1.00
H2       0.41207    -0.23573   0.45752   1.00
H2       0.30682    -0.01030   0.37264   1.00
H2       0.49885    -0.19606   0.46393   1.00
H2       0.30011    -0.03630   0.34726   1.00
H2       0.53007    -0.15294   0.42674   1.00
H2       0.40236    -0.05665   0.35281   1.00
H2       0.44254    -0.19358   0.42101   1.00
H2       0.40722    -0.03011   0.37813   1.00
H2       0.49528    -0.10577   0.41579   1.00
H2       0.39914    -0.11031   0.37277   1.00
H2       0.52915    -0.05023   0.47084   1.00
H2       0.21856    -0.19088   0.35249   1.00
H2       0.57945    -0.07379   0.45630   1.00
H2       0.29260    -0.14610   0.33756   1.00
H2       0.55101    -0.02104   0.44562   1.00
H2       0.28818    -0.20446   0.35603   1.00
C4       0.34868    0.15656    0.03165   1.00
C4       0.29673    0.13424    0.04679   1.00
C3       0.35888    0.11009    0.01964   1.00
C3       0.24692    0.06421    0.04952   1.00
C3       0.39267    0.22791    0.02819   1.00
C3       0.29363    0.18310    0.05982   1.00
C2       0.45155    0.20159    0.00033   1.00
C2       0.19368    0.08868    0.07806   1.00
C3       0.40847    0.13178    0.00438   1.00
C3       0.19713    0.04197    0.06473   1.00
C3       0.44230    0.24788    0.01243   1.00
C3       0.24236    0.15831    0.07519   1.00
H1       0.33109    0.05875    0.02166   1.00
H1       0.24451    0.02681    0.04043   1.00
C5       0.38675    0.27717    0.04038   1.00
C5       0.34061    0.25455    0.05725   1.00
H1       0.41307    0.09569    -0.00380   1.00
H1       0.16284    -0.00926   0.06596   1.00
H1       0.47419    0.29813    0.00943   1.00
H1       0.23883    0.19145    0.08484   1.00
C6       0.42862    0.35218    0.03514   1.00
C6       0.34141    0.30501    0.07247   1.00
H2       0.42734    0.35829    0.01878   1.00
H2       0.33796    0.28499    0.08773   1.00
H2       0.40479    0.38054    0.04063   1.00
H2       0.39071    0.35154    0.07295   1.00
C6       0.50356    0.38660    0.04335   1.00
C6       0.28461    0.32395    0.06852   1.00
H2       0.52468    0.35328    0.04045   1.00
H2       0.23645    0.27772    0.06508   1.00
C6       0.55561    0.45929    0.03514   1.00
C6       0.27068    0.36332    0.08565   1.00
H2       0.50143    0.38949    0.05985   1.00
H2       0.29813    0.35454    0.05468   1.00
C6       0.57002    0.45775    0.01220   1.00
C6       0.24063    0.31887    0.10493   1.00
C6       0.53041    0.51064    0.03882   1.00
C6       0.33618    0.43044    0.09141   1.00
C6       0.62417    0.48562    0.04661   1.00
C6       0.21740    0.38192    0.07776   1.00
H2       0.58685    0.42111    0.00905   1.00
H2       0.19490    0.27056    0.10131   1.00
H2       0.52477    0.44367    0.00309   1.00
H2       0.27718    0.30737    0.11200   1.00
H2       0.60980    0.50766    0.00695   1.00
H2       0.22670    0.34496    0.11624   1.00
H2       0.56913    0.56212    0.03437   1.00
H2       0.32497    0.45984    0.10229   1.00
H2       0.48469    0.49703    0.02997   1.00
H2       0.37373    0.42003    0.09835   1.00
H2       0.51852    0.51165    0.05480   1.00
H2       0.35917    0.46207    0.07802   1.00
H2       0.64460    0.45147    0.04433   1.00
H2       0.16979    0.33613    0.07367   1.00
H2       0.66242    0.53619    0.04130   1.00
H2       0.20562    0.40916    0.08927   1.00
H2       0.61760    0.48917    0.06288   1.00
H2       0.23625    0.41449    0.06437   1.00
C4       0.80920    0.65072    0.03180   1.00
C4       0.83874    0.70222    0.04708   1.00
C3       0.76319    0.65000    0.01693   1.00
C3       0.83005    0.76035    0.04727   1.00
C3       0.82566    0.59746    0.03116   1.00
C3       0.87873    0.69626    0.06287   1.00
C2       0.75205    0.54851    0.00029   1.00
C2       0.89564    0.80470    0.07852   1.00
C3       0.73569    0.60071    0.00158   1.00
C3       0.85729    0.80991    0.06255   1.00
C3       0.79685    0.54845    0.01522   1.00
C3       0.90527    0.74765    0.07821   1.00
H1       0.74740    0.68487    0.01681   1.00
H1       0.80417    0.76921    0.03620   1.00
C5       0.86942    0.59386    0.04624   1.00
C5       0.89165    0.64038    0.06301   1.00
H1       0.70301    0.60316    -0.00874   1.00
H1       0.84896    0.85048    0.06186   1.00
H1       0.80772    0.51008    0.01418   1.00
H1       0.93356    0.74493    0.08976   1.00
C6       0.89216    0.54163    0.04413   1.00
C6       0.92782    0.63079    0.08094   1.00
H2       0.90637    0.54045    0.02840   1.00
H2       0.90708    0.63882    0.09491   1.00
H2       0.94006    0.55757    0.05195   1.00
H2       0.91510    0.57795    0.08255   1.00
C6       0.83772    0.46895    0.05183   1.00
C6       1.00732    0.67717    0.07996   1.00
H2       0.78724    0.45657    0.04635   1.00
H2       1.02044    0.72875    0.07541   1.00
C6       0.84884    0.40795    0.04633   1.00
C6       1.04882    0.68296    0.09959   1.00
H2       0.83497    0.47139    0.06833   1.00
H2       1.02580    0.65824    0.06768   1.00
C6       0.84250    0.39391    0.02317   1.00
C6       1.03357    0.71966    0.11695   1.00
C6       0.91910    0.42046    0.05376   1.00
C6       1.03420    0.61207    0.10709   1.00
C6       0.79272    0.34274    0.05697   1.00
C6       1.12604    0.72603    0.09461   1.00
H2       0.79385    0.38596    0.01739   1.00
H2       1.04233    0.76947    0.11202   1.00
H2       0.88312    0.43619    0.01481   1.00
H2       0.98094    0.68999    0.12208   1.00
H2       0.84561    0.34846    0.01964   1.00
H2       1.06615    0.72766    0.13006   1.00
H2       0.92434    0.37570    0.05115   1.00
H2       1.06693    0.61698    0.11990   1.00
H2       0.96052    0.46309    0.04570   1.00
H2       0.98150    0.58129    0.11212   1.00
H2       0.92545    0.43190    0.06995   1.00
H2       1.04317    0.58456    0.09502   1.00
H2       0.74197    0.33118    0.05208   1.00
H2       1.13926    0.77698    0.08942   1.00
H2       0.79807    0.29852    0.05348   1.00
H2       1.15723    0.73191    0.10791   1.00
H2       0.79543    0.34898    0.07342   1.00
H2       1.14030    0.70200    0.08271   1.00
C4       -0.16530   0.19144    0.03398   1.00
C4       -0.14260   0.16469    0.04988   1.00
C3       -0.18201   0.16171    0.01427   1.00
C3       -0.14187   0.10241    0.04786   1.00
C3       -0.17175   0.25021    0.03764   1.00
C3       -0.11967   0.20087    0.06864   1.00
C2       -0.21441   0.24347    0.00210   1.00
C2       -0.09357   0.11224    0.08166   1.00
C3       -0.20615   0.18662    -0.00118   1.00
C3       -0.11782   0.07705    0.06320   1.00
C3       -0.19686   0.27376    0.02154   1.00
C3       -0.09522   0.17351    0.08384   1.00
H1       -0.17663   0.12124    0.01033   1.00
H1       -0.15943   0.07278    0.03524   1.00
C5       -0.15297   0.28407    0.05692   1.00
C5       -0.12189   0.26236    0.07188   1.00
H1       -0.21757   0.16273    -0.01504   1.00
H1       -0.11837   0.03198    0.06077   1.00
H1       -0.20259   0.31512    0.02361   1.00
H1       -0.07806   0.19802    0.09733   1.00
C6       -0.16688   0.34164    0.06129   1.00
C6       -0.09077   0.30389    0.09091   1.00
H2       -0.21773   0.32740    0.05585   1.00
H2       -0.04183   0.30714    0.09376   1.00
H2       -0.17178   0.34750    0.07746   1.00
H2       -0.07560   0.35720    0.08871   1.00
C6       -0.11134   0.41181    0.05233   1.00
C6       -0.13900   0.27587    0.10983   1.00
H2       -0.09886   0.40446    0.03685   1.00
H2       -0.16238   0.22039    0.11046   1.00
C6       -0.12781   0.47122    0.05193   1.00
C6       -0.10716   0.30497    0.13113   1.00
H2       -0.06449   0.42875    0.06102   1.00
H2       -0.18125   0.28537    0.10739   1.00
C6       -0.18736   0.45571    0.03723   1.00
C6       -0.05391   0.28415    0.13725   1.00
C6       -0.14537   0.48609    0.07335   1.00
C6       -0.07334   0.38368    0.13181   1.00
C6       -0.06382   0.53681    0.04423   1.00
C6       -0.16498   0.27488    0.14722   1.00
H2       -0.17701   0.44389    0.02204   1.00
H2       -0.07591   0.22888    0.13660   1.00
H2       -0.23510   0.41254    0.04244   1.00
H2       -0.00968   0.30713    0.12727   1.00
H2       -0.19532   0.49928    0.03599   1.00
H2       -0.03552   0.30061    0.15267   1.00
H2       -0.15197   0.53066    0.07316   1.00
H2       -0.05565   0.40300    0.14709   1.00
H2       -0.19273   0.44314    0.07892   1.00
H2       -0.02928   0.40766    0.12176   1.00
H2       -0.10487   0.49578    0.08410   1.00
H2       -0.10937   0.39978    0.12715   1.00
H2       -0.04963   0.52926    0.02902   1.00
H2       -0.19014   0.21929    0.14751   1.00
H2       -0.07297   0.57975    0.04355   1.00
H2       -0.14516   0.29339    0.16241   1.00
H2       -0.02028   0.55121    0.05422   1.00
H2       -0.20357   0.28900    0.14396   1.00
C4       0.50780    0.97318    0.86840   1.00
C4       0.52970    1.02305    0.88417   1.00
C3       0.55240    0.95372    0.85917   1.00
C3       0.59545    1.05162    0.89326   1.00
C3       0.43885    0.94108    0.86140   1.00
C3       0.48478    1.04574    0.89134   1.00
C2       0.46270    0.86992    0.83721   1.00
C2       0.57531    1.12635    0.91537   1.00
C3       0.53058    0.90345    0.84412   1.00
C3       0.61780    1.10194    0.90831   1.00
C3       0.41855    0.88985    0.84612   1.00
C3       0.50964    1.09734    0.90661   1.00
H1       0.60260    0.97584    0.86288   1.00
H1       0.62932    1.03645    0.88942   1.00
C5       0.39232    0.96059    0.86952   1.00
C5       0.41696    1.01679    0.88338   1.00
H1       0.56519    0.89154    0.83812   1.00
H1       0.66590    1.12068    0.91419   1.00
H1       0.36983    0.86555    0.84084   1.00
H1       0.47937    1.11512    0.91200   1.00
C6       0.31781    0.92121    0.86354   1.00
C6       0.37262    1.04634    0.88953   1.00
H2       0.30050    0.86683    0.86382   1.00
H2       0.40311    1.10181    0.88922   1.00
H2       0.28542    0.92502    0.87501   1.00
H2       0.33407    1.03667    0.87815   1.00
C6       0.30304    0.94383    0.84257   1.00
C6       0.33685    1.01955    0.91057   1.00
H2       0.34179    0.94974    0.83158   1.00
H2       0.37344    1.01987    0.92145   1.00
C6       0.23143    0.89716    0.83275   1.00
C6       0.30231    1.05745    0.92053   1.00
H2       0.30999    0.99486    0.84444   1.00
H2       0.29818    0.96590    0.90874   1.00
C6       0.22169    0.82673    0.82656   1.00
C6       0.35561    1.13148    0.92666   1.00
C6       0.17285    0.88645    0.84717   1.00
C6       0.24866    1.05889    0.90627   1.00
C6       0.22599    0.93234    0.81319   1.00
C6       0.26518    1.01875    0.94015   1.00
H2       0.26289    0.83256    0.81664   1.00
H2       0.39487    1.13230    0.93647   1.00
H2       0.22075    0.79737    0.83976   1.00
H2       0.38078    1.16284    0.91343   1.00
H2       0.17368    0.79640    0.81848   1.00
H2       0.33162    1.15586    0.93484   1.00
H2       0.12343    0.85797    0.83966   1.00
H2       0.22147    1.08104    0.91389   1.00
H2       0.17146    0.85769    0.86059   1.00
H2       0.27280    1.08953    0.89282   1.00
H2       0.17928    0.93532    0.85209   1.00
H2       0.21131    1.00747    0.90139   1.00
H2       0.26589    0.94046    0.80238   1.00
H2       0.30101    1.01689    0.95086   1.00
H2       0.17689    0.90140    0.80569   1.00
H2       0.24057    1.04360    0.94775   1.00
H2       0.23108    0.98183    0.81662   1.00
H2       0.22587    0.96643    0.93677   1.00
C4       0.01641    0.52354    0.86526   1.00
C4       -0.03677   0.49613    0.88007   1.00
C3       0.06809    0.50521    0.86445   1.00
C3       -0.04618   0.44330    0.89371   1.00
C3       0.01887    0.57124    0.85060   1.00
C3       -0.08285   0.52185    0.88150   1.00
C2       0.12206    0.57636    0.83470   1.00
C2       -0.14222   0.44298    0.91069   1.00
C3       0.11915    0.53048    0.84959   1.00
C3       -0.09703   0.41769    0.90863   1.00
C3       0.07149    0.59549    0.83565   1.00
C3       -0.13372   0.49466    0.89698   1.00
H1       0.07098    0.47333    0.87475   1.00
H1       -0.01685   0.42096    0.89318   1.00
C5       -0.03007   0.59382    0.85117   1.00
C5       -0.07772   0.57302    0.86763   1.00
H1       0.15478    0.51506    0.84978   1.00
H1       -0.10098   0.37977    0.91806   1.00
H1       0.07464    0.62911    0.82488   1.00
H1       -0.16713   0.51198    0.89856   1.00
C6       -0.03129   0.63858    0.83430   1.00
C6       -0.12203   0.60490    0.87068   1.00
H2       -0.02575   0.61886    0.81978   1.00
H2       -0.12252   0.61612    0.88673   1.00
H2       -0.08131   0.63372    0.83272   1.00
H2       -0.09919   0.65551    0.86401   1.00
C6       0.02335    0.71580    0.83703   1.00
C6       -0.19603   0.56027    0.86208   1.00
H2       0.07197    0.72051    0.84155   1.00
H2       -0.21578   0.50697    0.86632   1.00
C6       0.03716    0.76427    0.81850   1.00
C6       -0.25050   0.58026    0.86827   1.00
H2       0.00768    0.73525    0.84988   1.00
H2       -0.19251   0.56128    0.84554   1.00
C6       0.07005    0.74680    0.80055   1.00
C6       -0.26671   0.56964    0.89128   1.00
C6       -0.02901   0.76176    0.81112   1.00
C6       -0.22733   0.65514    0.86260   1.00
C6       0.08799    0.83853    0.82518   1.00
C6       -0.31765   0.53344    0.85664   1.00
H2       0.11634    0.74704    0.80535   1.00
H2       -0.28217   0.51751    0.89584   1.00
H2       0.03529    0.69669    0.79426   1.00
H2       -0.22267   0.60412    0.90038   1.00
H2       0.08381    0.78371    0.78827   1.00
H2       -0.30805   0.57915    0.89519   1.00
H2       -0.01808   0.79923    0.79917   1.00
H2       -0.26761   0.66707    0.86564   1.00
H2       -0.06481   0.71172    0.80494   1.00
H2       -0.18282   0.69050    0.87142   1.00
H2       -0.05396   0.77248    0.82358   1.00
H2       -0.21423   0.66436    0.84655   1.00
H2       0.13600    0.84328    0.83035   1.00
H2       -0.33664   0.47987    0.86028   1.00
H2       0.09962    0.87434    0.81268   1.00
H2       -0.35751   0.54516    0.86057   1.00
H2       0.06706    0.85439    0.83757   1.00
H2       -0.30982   0.53965    0.84027   1.00
C4       0.47557    0.49133    0.86508   1.00
C4       0.50248    0.46519    0.87994   1.00
C3       0.50275    0.56256    0.86196   1.00
C3       0.56272    0.50810    0.89120   1.00
C3       0.41926    0.44521    0.85276   1.00
C3       0.46858    0.39351    0.88387   1.00
C2       0.42336    0.54426    0.83437   1.00
C2       0.55509    0.41277    0.91069   1.00
C3       0.47776    0.58835    0.84702   1.00
C3       0.58813    0.48286    0.90618   1.00
C3       0.39556    0.47354    0.83763   1.00
C3       0.49590    0.36990    0.89933   1.00
H1       0.54129    0.59839    0.87057   1.00
H1       0.59078    0.55923    0.88879   1.00
C5       0.38791    0.37299    0.85577   1.00
C5       0.40935    0.34745    0.87242   1.00
H1       0.49976    0.64026    0.84548   1.00
H1       0.63165    0.51651    0.91382   1.00
H1       0.35593    0.44239    0.82849   1.00
H1       0.47296    0.31935    0.90265   1.00
C6       0.33324    0.32474    0.84123   1.00
C6       0.36986    0.27276    0.87820   1.00
H2       0.34903    0.34263    0.82576   1.00
H2       0.36452    0.26850    0.89464   1.00
H2       0.32994    0.27519    0.84084   1.00
H2       0.31696    0.24892    0.87336   1.00
C6       0.26095    0.31455    0.84607   1.00
C6       0.40212    0.23066    0.86963   1.00
H2       0.26541    0.36391    0.84941   1.00
H2       0.45735    0.25925    0.87185   1.00
C6       0.20401    0.27832    0.82964   1.00
C6       0.37496    0.15709    0.87824   1.00
H2       0.24318    0.28545    0.86016   1.00
H2       0.39476    0.22696    0.85321   1.00
C6       0.22026    0.32198    0.81011   1.00
C6       0.39322    0.15849    0.90098   1.00
C6       0.19329    0.20715    0.82406   1.00
C6       0.29678    0.11216    0.87554   1.00
C6       0.13589    0.26831    0.83836   1.00
C6       0.40936    0.12307    0.86638   1.00
H2       0.22921    0.37298    0.81358   1.00
H2       0.44802    0.19072    0.90344   1.00
H2       0.26541    0.32754    0.80248   1.00
H2       0.36727    0.17799    0.91039   1.00
H2       0.17816    0.29857    0.79932   1.00
H2       0.37829    0.10743    0.90646   1.00
H2       0.15029    0.18036    0.81371   1.00
H2       0.27909    0.05972    0.88024   1.00
H2       0.23825    0.21159    0.81658   1.00
H2       0.26984    0.13127    0.88470   1.00
H2       0.18317    0.17586    0.83761   1.00
H2       0.28240    0.11147    0.85971   1.00
H2       0.14049    0.31724    0.84235   1.00
H2       0.46475    0.15247    0.86797   1.00
H2       0.09454    0.24354    0.82736   1.00
H2       0.39232    0.07160    0.87194   1.00
H2       0.12093    0.23666    0.85197   1.00
H2       0.39722    0.11933    0.85024   1.00
C4       0.30645    0.17168    0.29826   1.00
C4       0.35689    0.19334    0.28267   1.00
C3       0.27029    0.20672    0.30258   1.00
C3       0.36957    0.24701    0.26894   1.00
C3       0.29099    0.11290    0.31017   1.00
C3       0.39657    0.16059    0.28049   1.00
C2       0.20206    0.12599    0.32913   1.00
C2       0.46117    0.23944    0.25177   1.00
C3       0.21943    0.18448    0.31746   1.00
C3       0.42031    0.26968    0.25401   1.00
C3       0.23859    0.09171    0.32511   1.00
C3       0.44800    0.18545    0.26516   1.00
H1       0.28002    0.25011    0.29520   1.00
H1       0.34196    0.27120    0.26913   1.00
C5       0.32769    0.07720    0.30711   1.00
C5       0.38419    0.10438    0.29331   1.00
H1       0.19504    0.21184    0.31977   1.00
H1       0.42712    0.30880    0.24463   1.00
H1       0.22583    0.04989    0.33378   1.00
H1       0.47757    0.16378    0.26323   1.00
C6       0.30589    0.01103    0.31830   1.00
C6       0.43127    0.07501    0.29228   1.00
H2       0.25048    -0.02005   0.31785   1.00
H2       0.48388    0.11668    0.29160   1.00
H2       0.32107    -0.02115   0.31024   1.00
H2       0.43119    0.05016    0.30639   1.00
C6       0.33375    0.02188    0.34056   1.00
C6       0.41417    0.02353    0.27433   1.00
H2       0.32753    0.06176    0.34787   1.00
H2       0.40436    0.04422    0.26058   1.00
C6       0.30257    -0.04162   0.35495   1.00
C6       0.46793    0.00170    0.26900   1.00
H2       0.38878    0.04229    0.33974   1.00
H2       0.36589    -0.02237   0.27786   1.00
C6       0.22634    -0.06730   0.35957   1.00
C6       0.53489    0.06240    0.26067   1.00
C6       0.30979    -0.10089   0.34594   1.00
C6       0.48459    -0.02924   0.28760   1.00
C6       0.34174    -0.02051   0.37542   1.00
C6       0.43782    -0.05363   0.25217   1.00
H2       0.21939    -0.02632   0.36565   1.00
H2       0.52473    0.08610    0.24772   1.00
H2       0.19504    -0.08693   0.34600   1.00
H2       0.56104    0.10151    0.27217   1.00
H2       0.20638    -0.10849   0.37070   1.00
H2       0.57017    0.04571    0.25569   1.00
H2       0.29237    -0.14298   0.35670   1.00
H2       0.51830    -0.04873   0.28338   1.00
H2       0.27931    -0.12083   0.33221   1.00
H2       0.51022    0.00899    0.29939   1.00
H2       0.36284    -0.08377   0.34216   1.00
H2       0.43812    -0.07122   0.29402   1.00
H2       0.33765    0.02085    0.38254   1.00
H2       0.42580    -0.03411   0.23859   1.00
H2       0.32147    -0.06315   0.38606   1.00
H2       0.47376    -0.07024   0.24783   1.00
H2       0.39575    -0.00315   0.37321   1.00
H2       0.39108    -0.09849   0.25730   1.00
C4       0.87040    0.69226    0.29858   1.00
C4       0.84361    0.64280    0.28268   1.00
C3       0.91592    0.69261    0.31357   1.00
C3       0.86590    0.59483    0.27939   1.00
C3       0.85144    0.74365    0.29979   1.00
C3       0.79260    0.64055    0.26940   1.00
C2       0.92726    0.79426    0.33016   1.00
C2       0.78706    0.54059    0.25116   1.00
C3       0.94381    0.74219    0.32883   1.00
C3       0.83833    0.54502    0.26419   1.00
C3       0.88128    0.79344    0.31550   1.00
C3       0.76557    0.58879    0.25417   1.00
H1       0.92998    0.65645    0.31408   1.00
H1       0.90349    0.59471    0.28779   1.00
C5       0.80360    0.74421    0.28565   1.00
C5       0.77018    0.68934    0.27142   1.00
H1       0.97656    0.73979    0.33913   1.00
H1       0.85641    0.51173    0.26266   1.00
H1       0.86941    0.83105    0.31677   1.00
H1       0.72891    0.58527    0.24453   1.00
C6       0.78960    0.80296    0.28577   1.00
C6       0.71116    0.68188    0.25870   1.00
H2       0.83772    0.85066    0.28730   1.00
H2       0.67113    0.62849    0.25856   1.00
H2       0.77185    0.80952    0.27108   1.00
H2       0.68531    0.70593    0.26586   1.00
C6       0.73702    0.79577    0.30243   1.00
C6       0.73268    0.71088    0.23667   1.00
H2       0.74892    0.77936    0.31670   1.00
H2       0.76707    0.69477    0.23040   1.00
C6       0.73000    0.85984    0.30700   1.00
C6       0.67447    0.69262    0.22085   1.00
H2       0.68703    0.75396    0.29794   1.00
H2       0.76318    0.76637    0.23780   1.00
C6       0.79595    0.91836    0.31658   1.00
C6       0.63528    0.61530    0.21589   1.00
C6       0.71220    0.88646    0.28763   1.00
C6       0.62332    0.71443    0.22832   1.00
C6       0.67128    0.83933    0.32251   1.00
C6       0.70704    0.73150    0.20083   1.00
H2       0.81053    0.90088    0.33012   1.00
H2       0.67015    0.59805    0.21088   1.00
H2       0.83854    0.93818    0.30600   1.00
H2       0.60759    0.58503    0.22904   1.00
H2       0.78896    0.96091    0.32100   1.00
H2       0.59804    0.60382    0.20384   1.00
H2       0.70263    0.92800    0.29122   1.00
H2       0.58582    0.70595    0.21661   1.00
H2       0.75398    0.90594    0.27674   1.00
H2       0.59551    0.68513    0.24162   1.00
H2       0.66672    0.84584    0.28035   1.00
H2       0.64980    0.76840    0.23233   1.00
H2       0.68168    0.82079    0.33658   1.00
H2       0.74316    0.71736    0.19478   1.00
H2       0.66467    0.88262    0.32629   1.00
H2       0.66836    0.72002    0.18923   1.00
H2       0.62295    0.79905    0.31644   1.00
H2       0.73435    0.78654    0.20326   1.00
C4       0.82229    0.12981    0.29853   1.00
C4       0.79974    0.15675    0.28264   1.00
C3       0.77652    0.08168    0.31290   1.00
C3       0.72935    0.13222    0.27871   1.00
C3       0.89315    0.15134    0.30036   1.00
C3       0.84873    0.21021    0.27002   1.00
C2       0.86738    0.07278    0.33006   1.00
C2       0.75412    0.21346    0.25115   1.00
C3       0.79820    0.05371    0.32814   1.00
C3       0.70712    0.15985    0.26352   1.00
C3       0.91309    0.12133    0.31602   1.00
C3       0.82398    0.23721    0.25479   1.00
H1       0.72581    0.06565    0.31296   1.00
H1       0.69159    0.09289    0.28660   1.00
C5       0.94201    0.20179    0.28687   1.00
C5       0.92021    0.23506    0.27269   1.00
H1       0.76262    0.01901    0.33798   1.00
H1       0.65565    0.14008    0.26150   1.00
H1       0.96295    0.13499    0.31772   1.00
H1       0.85726    0.27557    0.24562   1.00
C6       1.01567    0.21870    0.28760   1.00
C6       0.97164    0.29642    0.26071   1.00
H2       1.01725    0.17152    0.28883   1.00
H2       0.95619    0.33492    0.26073   1.00
H2       1.04137    0.23876    0.27320   1.00
H2       1.02062    0.32307    0.26839   1.00
C6       1.05774    0.27019    0.30490   1.00
C6       0.98277    0.27821    0.23863   1.00
H2       1.02775    0.25571    0.31888   1.00
H2       0.93346    0.24307    0.23179   1.00
C6       1.12951    0.27970    0.31002   1.00
C6       1.02273    0.33859    0.22346   1.00
H2       1.06435    0.31987    0.30078   1.00
H2       1.00954    0.24941    0.23975   1.00
C6       1.12383    0.21390    0.31914   1.00
C6       0.98256    0.37571    0.21846   1.00
C6       1.17629    0.30124    0.29110   1.00
C6       1.09407    0.39096    0.23177   1.00
C6       1.16411    0.33701    0.32615   1.00
C6       1.03292    0.30932    0.20331   1.00
H2       1.09021    0.19672    0.33235   1.00
H2       0.93149    0.33991    0.21287   1.00
H2       1.10371    0.17250    0.30814   1.00
H2       0.97717    0.40116    0.23176   1.00
H2       1.17360    0.22245    0.32396   1.00
H2       1.00855    0.41457    0.20683   1.00
H2       1.22764    0.31247    0.29511   1.00
H2       1.12335    0.43018    0.22050   1.00
H2       1.15663    0.26067    0.27980   1.00
H2       1.08977    0.41655    0.24522   1.00
H2       1.18000    0.34668    0.28413   1.00
H2       1.12289    0.36588    0.23581   1.00
H2       1.13342    0.32398    0.33994   1.00
H2       0.98392    0.27248    0.19668   1.00
H2       1.21434    0.34526    0.33033   1.00
H2       1.06027    0.34960    0.19215   1.00
H2       1.17083    0.38524    0.32044   1.00
H2       1.06222    0.28362    0.20577   1.00
C4       0.81924    0.68193    0.80166   1.00
C4       0.79572    0.62912    0.78677   1.00
C3       0.78270    0.71617    0.80654   1.00
C3       0.73076    0.60197    0.77726   1.00
C3       0.88163    0.70201    0.81222   1.00
C3       0.83808    0.60172    0.78098   1.00
C2       0.86501    0.78642    0.83250   1.00
C2       0.74949    0.52466    0.75591   1.00
C3       0.80460    0.76659    0.82155   1.00
C3       0.70837    0.55159    0.76223   1.00
C3       0.90196    0.75331    0.82748   1.00
C3       0.81355    0.55072    0.76554   1.00
H1       0.73916    0.70624    0.79922   1.00
H1       0.69698    0.61731    0.78105   1.00
C5       0.92209    0.67140    0.80738   1.00
C5       0.90279    0.62498    0.79063   1.00
H1       0.77581    0.78916    0.82440   1.00
H1       0.66109    0.53434    0.75591   1.00
H1       0.94577    0.76862    0.83541   1.00
H1       0.84239    0.53033    0.76092   1.00
C6       0.98408    0.68785    0.82013   1.00
C6       0.95012    0.60089    0.78287   1.00
H2       0.97134    0.68717    0.83610   1.00
H2       0.95074    0.60242    0.76634   1.00
H2       0.99639    0.64724    0.81952   1.00
H2       1.00307    0.63695    0.78645   1.00
C6       1.04884    0.75678    0.81407   1.00
C6       0.93186    0.52871    0.79104   1.00
H2       1.03466    0.79589    0.81176   1.00
H2       0.87673    0.49444    0.79019   1.00
C6       1.11117    0.78647    0.82890   1.00
C6       0.96716    0.49220    0.78067   1.00
H2       1.06585    0.74965    0.79923   1.00
H2       0.94402    0.53381    0.80721   1.00
C6       1.09443    0.80838    0.84941   1.00
C6       0.94383    0.47309    0.75833   1.00
C6       1.13566    0.73473    0.83292   1.00
C6       1.04590    0.53672    0.78136   1.00
C6       1.17102    0.85093    0.81904   1.00
C6       0.94647    0.42500    0.79231   1.00
H2       1.07591    0.84410    0.84707   1.00
H2       0.88834    0.44254    0.75729   1.00
H2       1.05552    0.76474    0.85776   1.00
H2       0.96046    0.51829    0.74896   1.00
H2       1.13948    0.83330    0.85909   1.00
H2       0.96500    0.44354    0.75167   1.00
H2       1.18202    0.75759    0.84208   1.00
H2       1.07001    0.50894    0.77541   1.00
H2       1.09709    0.69029    0.84110   1.00
H2       1.06354    0.58263    0.77222   1.00
H2       1.14644    0.71738    0.81869   1.00
H2       1.06356    0.55209    0.79689   1.00
H2       1.15660    0.88950    0.81608   1.00
H2       0.89123    0.39130    0.79210   1.00
H2       1.21572    0.87384    0.82891   1.00
H2       0.96956    0.39736    0.78554   1.00
H2       1.18615    0.83850    0.80467   1.00
H2       0.96280    0.43523    0.80812   1.00
C4       0.30829    0.12915    0.79874   1.00
C4       0.35998    0.15413    0.78346   1.00
C3       0.24753    0.13278    0.79675   1.00
C3       0.35139    0.17785    0.76428   1.00
C3       0.31689    0.09932    0.81681   1.00
C3       0.42295    0.15574    0.78724   1.00
C2       0.20221    0.07561    0.82916   1.00
C2       0.46574    0.20779    0.75294   1.00
C3       0.19588    0.10656    0.81142   1.00
C3       0.40270    0.20420    0.74950   1.00
C3       0.26291    0.07289    0.83134   1.00
C3       0.47405    0.18331    0.77184   1.00
H1       0.23881    0.15522    0.78465   1.00
H1       0.30727    0.17624    0.76025   1.00
C5       0.37822    0.09682    0.82006   1.00
C5       0.43348    0.12992    0.80594   1.00
H1       0.15317    0.11051    0.80905   1.00
H1       0.39343    0.22074    0.73600   1.00
H1       0.26694    0.05088    0.84432   1.00
H1       0.51966    0.18574    0.77402   1.00
C6       0.38355    0.05869    0.83819   1.00
C6       0.50285    0.13859    0.81061   1.00
H2       0.33600    0.01044    0.83976   1.00
H2       0.54211    0.19011    0.80651   1.00
H2       0.41994    0.04151    0.83557   1.00
H2       0.51104    0.13820    0.82684   1.00
C6       0.40297    0.10132    0.85829   1.00
C6       0.51518    0.08344    0.80021   1.00
H2       0.37315    0.12703    0.85956   1.00
H2       0.49766    0.07641    0.78448   1.00
C6       0.39517    0.06258    0.87867   1.00
C6       0.58970    0.09588    0.80020   1.00
H2       0.45594    0.14224    0.85694   1.00
H2       0.48215    0.03466    0.80765   1.00
C6       0.31939    0.01065    0.88340   1.00
C6       0.63810    0.15860    0.78711   1.00
C6       0.43659    0.02503    0.87842   1.00
C6       0.61882    0.10562    0.82198   1.00
C6       0.42289    0.11543    0.89620   1.00
C6       0.58873    0.03248    0.79083   1.00
H2       0.28854    0.03539    0.88336   1.00
H2       0.61838    0.15380    0.77171   1.00
H2       0.29778    -0.03046   0.87231   1.00
H2       0.64449    0.20572    0.79355   1.00
H2       0.31406    -0.01263   0.89828   1.00
H2       0.68868    0.16404    0.78604   1.00
H2       0.43476    0.00230    0.89318   1.00
H2       0.66879    0.10937    0.82193   1.00
H2       0.41613    -0.01596   0.86726   1.00
H2       0.62497    0.15224    0.82878   1.00
H2       0.48989    0.06020    0.87470   1.00
H2       0.58494    0.06279    0.83163   1.00
H2       0.39482    0.14294    0.89718   1.00
H2       0.56921    0.02373    0.77533   1.00
H2       0.41811    0.09071    0.91081   1.00
H2       0.63983    0.03894    0.79037   1.00
H2       0.47669    0.15277    0.89394   1.00
H2       0.55644    -0.01333   0.79966   1.00
C4       0.87035    0.17804    0.79857   1.00
C4       0.84554    0.20463    0.78321   1.00
C3       0.85878    0.11015    0.79796   1.00
C3       0.81376    0.16783    0.76515   1.00
C3       0.90820    0.22018    0.81530   1.00
C3       0.85243    0.27050    0.78574   1.00
C2       0.92336    0.12527    0.82909   1.00
C2       0.79234    0.25691    0.75260   1.00
C3       0.88471    0.08457    0.81268   1.00
C3       0.78763    0.19291    0.75034   1.00
C3       0.93404    0.19231    0.82992   1.00
C3       0.82479    0.29404    0.77035   1.00
H1       0.83050    0.07652    0.78690   1.00
H1       0.80902    0.12170    0.76198   1.00
C5       0.91905    0.28800    0.81719   1.00
C5       0.88650    0.31116    0.80320   1.00
H1       0.87480    0.03526    0.81133   1.00
H1       0.76505    0.16376    0.73769   1.00
H1       0.96158    0.22087    0.84196   1.00
H1       0.82828    0.34042    0.77168   1.00
C6       0.96524    0.33444    0.83376   1.00
C6       0.88700    0.37747    0.80674   1.00
H2       1.01077    0.32971    0.83458   1.00
H2       0.83629    0.36970    0.80369   1.00
H2       0.98677    0.38790    0.82980   1.00
H2       0.89335    0.39131    0.82270   1.00
C6       0.92895    0.32130    0.85487   1.00
C6       0.94315    0.43856    0.79418   1.00
H2       0.89885    0.26644    0.85766   1.00
H2       0.94364    0.42194    0.77864   1.00
C6       0.97494    0.35518    0.87392   1.00
C6       0.93886    0.50538    0.79309   1.00
H2       0.89183    0.33861    0.85390   1.00
H2       0.99272    0.45133    0.80051   1.00
C6       1.02195    0.32510    0.87833   1.00
C6       0.87473    0.49413    0.78131   1.00
C6       1.01914    0.43354    0.87150   1.00
C6       0.93874    0.53349    0.81450   1.00
C6       0.92810    0.34050    0.89268   1.00
C6       1.00242    0.56044    0.78154   1.00
H2       0.99235    0.26967    0.87980   1.00
H2       0.87272    0.47323    0.76623   1.00
H2       1.05916    0.33723    0.86628   1.00
H2       0.82800    0.45902    0.78926   1.00
H2       1.05031    0.34557    0.89241   1.00
H2       0.87465    0.54196    0.77941   1.00
H2       1.04730    0.45715    0.88540   1.00
H2       0.94068    0.58255    0.81356   1.00
H2       1.05633    0.44674    0.85935   1.00
H2       0.89262    0.49869    0.82280   1.00
H2       0.98738    0.45584    0.86796   1.00
H2       0.98266    0.54052    0.82327   1.00
H2       0.89622    0.28571    0.89520   1.00
H2       1.00455    0.54339    0.76620   1.00
H2       0.95796    0.36280    0.90642   1.00
H2       1.00152    0.60806    0.78026   1.00
H2       0.89456    0.36174    0.89066   1.00
H2       1.04940    0.57166    0.78934   1.00
C4       0.01589    0.49166    0.36512   1.00
C4       -0.03565   0.46967    0.38038   1.00
C3       0.01729    0.44616    0.35045   1.00
C3       -0.09319   0.40250    0.38075   1.00
C3       0.06850    0.56163    0.36428   1.00
C3       -0.03032   0.51598    0.39598   1.00
C2       0.11815    0.53672    0.33362   1.00
C2       -0.13816   0.42411    0.41181   1.00
C3       0.06660    0.46794    0.33511   1.00
C3       -0.14277   0.38019    0.39602   1.00
C3       0.11755    0.58181    0.34834   1.00
C3       -0.08169   0.49113    0.41132   1.00
H1       -0.01707   0.39536    0.35048   1.00
H1       -0.10161   0.36746    0.36982   1.00
C5       0.07142    0.60926    0.37914   1.00
C5       0.02494    0.58510    0.39593   1.00
H1       0.06465    0.43264    0.32494   1.00
H1       -0.18290   0.33103    0.39547   1.00
H1       0.15546    0.63120    0.34716   1.00
H1       -0.07942   0.52239    0.42274   1.00
C6       0.12290    0.68436    0.37681   1.00
C6       0.03393    0.63135    0.41367   1.00
H2       0.12384    0.69904    0.36102   1.00
H2       0.02628    0.60321    0.42775   1.00
H2       0.10637    0.71613    0.38445   1.00
H2       0.08656    0.67202    0.41521   1.00
C6       0.19585    0.70386    0.38458   1.00
C6       -0.01331   0.66346    0.41245   1.00
H2       0.20890    0.66604    0.37930   1.00
H2       -0.06470   0.62434    0.40796   1.00
C6       0.25621    0.77614    0.37888   1.00
C6       -0.01966   0.69956    0.43190   1.00
H2       0.19349    0.69931    0.40110   1.00
H2       0.00519    0.70039    0.40004   1.00
C6       0.27021    0.78310    0.35572   1.00
C6       -0.05583   0.64813    0.44941   1.00
C6       0.24274    0.83353    0.38602   1.00
C6       0.05091    0.75676    0.43930   1.00
C6       0.32178    0.78656    0.38962   1.00
C6       -0.06358   0.73260    0.42667   1.00
H2       0.27884    0.74261    0.35014   1.00
H2       -0.10539   0.60645    0.44457   1.00
H2       0.22764    0.78049    0.34728   1.00
H2       -0.02558   0.62600    0.45471   1.00
H2       0.31526    0.83183    0.35207   1.00
H2       -0.06425   0.67290    0.46240   1.00
H2       0.28707    0.88373    0.38328   1.00
H2       0.04556    0.78478    0.45196   1.00
H2       0.19980    0.83138    0.37788   1.00
H2       0.08227    0.73568    0.44449   1.00
H2       0.23132    0.82895    0.40221   1.00
H2       0.07806    0.79292    0.42712   1.00
H2       0.33403    0.74767    0.38493   1.00
H2       -0.11435   0.69418    0.42155   1.00
H2       0.36558    0.83629    0.38599   1.00
H2       -0.06988   0.75813    0.43985   1.00
H2       0.31557    0.78360    0.40607   1.00
H2       -0.03996   0.77050    0.41465   1.00
C4       0.47582    0.98409    0.36512   1.00
C4       0.50536    1.03561    0.38039   1.00
C3       0.42924    0.98294    0.35038   1.00
C3       0.49608    1.09338    0.38069   1.00
C3       0.49284    0.93124    0.36436   1.00
C3       0.54597    1.03004    0.39606   1.00
C2       0.41863    0.88184    0.33362   1.00
C2       0.56229    1.13812    0.41183   1.00
C3       0.40172    0.93364    0.33503   1.00
C3       0.52333    1.14295    0.39597   1.00
C3       0.46400    0.88220    0.34842   1.00
C3       0.57250    1.08143    0.41140   1.00
H1       0.41304    1.01749    0.35036   1.00
H1       0.46973    1.10196    0.36971   1.00
C5       0.53720    0.92806    0.37930   1.00
C5       0.55949    0.97456    0.39609   1.00
H1       0.36863    0.93578    0.32481   1.00
H1       0.51457    1.18324    0.39537   1.00
H1       0.47525    0.84412    0.34729   1.00
H1       0.60123    1.07898    0.42287   1.00
C6       0.56050    0.87630    0.37705   1.00
C6       0.59634    0.96534    0.41389   1.00
H2       0.57441    0.87528    0.36128   1.00
H2       0.57576    0.97313    0.42793   1.00
H2       0.60865    0.89261    0.38476   1.00
H2       0.58410    0.91264    0.41546   1.00
C6       0.50667    0.80345    0.38480   1.00
C6       0.67575    1.01227    0.41276   1.00
H2       0.45595    0.79065    0.37944   1.00
H2       0.68834    1.06372    0.40825   1.00
C6       0.51830    0.74285    0.37917   1.00
C6       0.71785    1.01841    0.43228   1.00
H2       0.50427    0.80584    0.40131   1.00
H2       0.69420    0.99361    0.40040   1.00
C6       0.51152    0.72884    0.35601   1.00
C6       0.70259    1.05477    0.44973   1.00
C6       0.58894    0.75597    0.38642   1.00
C6       0.70401    0.94771    0.43972   1.00
C6       0.46279    0.67741    0.38988   1.00
C6       0.79491    1.06201    0.42714   1.00
H2       0.46258    0.72046    0.35036   1.00
H2       0.71080    1.10442    0.44486   1.00
H2       0.55173    0.77130    0.34760   1.00
H2       0.65011    1.02473    0.45497   1.00
H2       0.51499    0.68364    0.35240   1.00
H2       0.73555    1.06303    0.46277   1.00
H2       0.59458    0.71148    0.38373   1.00
H2       0.73715    0.95290    0.45243   1.00
H2       0.62996    0.79879    0.37831   1.00
H2       0.65148    0.91657    0.44485   1.00
H2       0.59560    0.76739    0.40261   1.00
H2       0.71301    0.92043    0.42757   1.00
H2       0.41179    0.66542    0.38511   1.00
H2       0.80758    1.11285    0.42200   1.00
H2       0.46850    0.63346    0.38630   1.00
H2       0.82650    1.06815    0.44037   1.00
H2       0.46583    0.68363    0.40633   1.00
H2       0.80918    1.03824    0.41517   1.00
C4       0.50828    0.52418    0.36512   1.00
C4       0.53027    0.49464    0.38039   1.00
C3       0.55371    0.57077    0.35038   1.00
C3       0.59732    0.50394    0.38070   1.00
C3       0.43841    0.50715    0.36435   1.00
C3       0.48408    0.45402    0.39606   1.00
C2       0.46323    0.58137    0.33362   1.00
C2       0.57583    0.43771    0.41183   1.00
C3       0.53193    0.59829    0.33504   1.00
C3       0.61963    0.47668    0.39597   1.00
C3       0.41821    0.53599    0.34842   1.00
C3       0.50893    0.42748    0.41140   1.00
H1       0.60446    0.58698    0.35036   1.00
H1       0.63225    0.53029    0.36972   1.00
C5       0.39087    0.46278    0.37929   1.00
C5       0.41507    0.44049    0.39608   1.00
H1       0.56717    0.63140    0.32481   1.00
H1       0.66870    0.48546    0.39537   1.00
H1       0.36888    0.52473    0.34729   1.00
H1       0.47776    0.39875    0.42286   1.00
C6       0.31581    0.43946    0.37704   1.00
C6       0.36900    0.40361    0.41388   1.00
H2       0.30087    0.42555    0.36127   1.00
H2       0.39736    0.42420    0.42793   1.00
H2       0.28397    0.39131    0.38475   1.00
H2       0.32852    0.41584    0.41545   1.00
C6       0.29676    0.49328    0.38479   1.00
C6       0.33652    0.32421    0.41275   1.00
H2       0.33468    0.54400    0.37943   1.00
H2       0.37541    0.31164    0.40824   1.00
C6       0.22453    0.48163    0.37916   1.00
C6       0.30056    0.28209    0.43226   1.00
H2       0.30154    0.49567    0.40130   1.00
H2       0.29942    0.30576    0.40039   1.00
C6       0.21731    0.48843    0.35600   1.00
C6       0.35218    0.29736    0.44972   1.00
C6       0.16702    0.41099    0.38640   1.00
C6       0.24369    0.29591    0.43970   1.00
C6       0.21459    0.53713    0.38987   1.00
C6       0.26712    0.20504    0.42712   1.00
H2       0.25788    0.53738    0.35035   1.00
H2       0.39363    0.28916    0.44485   1.00
H2       0.21958    0.44823    0.34759   1.00
H2       0.37461    0.34983    0.45496   1.00
H2       0.16864    0.48495    0.35239   1.00
H2       0.32747    0.26438    0.46275   1.00
H2       0.11688    0.40534    0.38371   1.00
H2       0.21574    0.26277    0.45242   1.00
H2       0.16883    0.36998    0.37829   1.00
H2       0.26507    0.34844    0.44483   1.00
H2       0.17178    0.40432    0.40259   1.00
H2       0.20742    0.28692    0.42756   1.00
H2       0.25359    0.58814    0.38511   1.00
H2       0.30530    0.19238    0.42198   1.00
H2       0.16492    0.53141    0.38629   1.00
H2       0.24167    0.17344    0.44035   1.00
H2       0.21775    0.53408    0.40632   1.00
H2       0.22909    0.19077    0.41515   1.00
C4       0.17281    0.31639    0.19875   1.00
C4       0.19831    0.36962    0.21355   1.00
C3       0.10488    0.26016    0.19934   1.00
C3       0.15578    0.37414    0.22867   1.00
C3       0.21622    0.31859    0.18266   1.00
C3       0.26888    0.42079    0.21343   1.00
C2       0.12015    0.21045    0.16828   1.00
C2       0.25046    0.47533    0.24409   1.00
C3       0.07913    0.20893    0.18453   1.00
C3       0.18100    0.42513    0.24355   1.00
C3       0.18792    0.26561    0.16782   1.00
C3       0.29262    0.47163    0.22891   1.00
H1       0.07177    0.25396    0.21066   1.00
H1       0.10474    0.34095    0.22931   1.00
C5       0.28594    0.37239    0.18175   1.00
C5       0.31362    0.42057    0.19807   1.00
H1       0.02960    0.16988    0.18577   1.00
H1       0.14773    0.42542    0.25408   1.00
H1       0.21705    0.26566    0.15608   1.00
H1       0.34255    0.50860    0.22941   1.00
C6       0.32911    0.37808    0.16351   1.00
C6       0.38942    0.47058    0.19939   1.00
H2       0.29920    0.36978    0.14977   1.00
H2       0.40614    0.47270    0.21501   1.00
H2       0.37057    0.43001    0.16131   1.00
H2       0.41898    0.45190    0.19149   1.00
C6       0.35927    0.32912    0.16461   1.00
C6       0.40986    0.54322    0.19110   1.00
H2       0.31979    0.27872    0.16972   1.00
H2       0.37391    0.55832    0.19671   1.00
C6       0.39171    0.31939    0.14482   1.00
C6       0.48367    0.60270    0.19577   1.00
H2       0.39794    0.34798    0.17653   1.00
H2       0.40294    0.53923    0.17466   1.00
C6       0.33748    0.28254    0.12802   1.00
C6       0.49429    0.61914    0.21877   1.00
C6       0.44916    0.38837    0.13652   1.00
C6       0.53856    0.58630    0.18810   1.00
C6       0.42347    0.27420    0.14989   1.00
C6       0.49452    0.66783    0.18464   1.00
H2       0.29562    0.23411    0.13352   1.00
H2       0.45562    0.62986    0.22473   1.00
H2       0.31599    0.31346    0.12282   1.00
H2       0.49154    0.57686    0.22742   1.00
H2       0.35967    0.27177    0.11483   1.00
H2       0.54417    0.66364    0.22172   1.00
H2       0.47469    0.38064    0.12360   1.00
H2       0.58972    0.62993    0.19012   1.00
H2       0.42875    0.42040    0.13142   1.00
H2       0.53620    0.54362    0.19644   1.00
H2       0.48732    0.41602    0.14820   1.00
H2       0.53135    0.57314    0.17202   1.00
H2       0.38479    0.22447    0.15563   1.00
H2       0.45740    0.68208    0.18968   1.00
H2       0.44644    0.26555    0.13649   1.00
H2       0.54533    0.71103    0.18756   1.00
H2       0.46320    0.29818    0.16140   1.00
H2       0.48905    0.65988    0.16827   1.00
C4       0.69159    0.87093    0.20123   1.00
C4       0.64218    0.84453    0.21715   1.00
C3       0.68645    0.90815    0.18456   1.00
C3       0.58827    0.85955    0.21863   1.00
C3       0.74859    0.86009    0.20174   1.00
C3       0.64609    0.80146    0.23231   1.00
C2       0.79322    0.92722    0.16954   1.00
C2       0.54027    0.78848    0.24876   1.00
C3       0.73582    0.93578    0.16923   1.00
C3       0.53862    0.83218    0.23388   1.00
C3       0.79794    0.88939    0.18590   1.00
C3       0.59430    0.77432    0.24752   1.00
H1       0.64629    0.91601    0.18281   1.00
H1       0.58346    0.89150    0.20881   1.00
C5       0.75503    0.82058    0.21768   1.00
C5       0.70083    0.78683    0.23210   1.00
H1       0.72929    0.96235    0.15766   1.00
H1       0.50090    0.84477    0.23407   1.00
H1       0.83941    0.88318    0.18581   1.00
H1       0.59508    0.74312    0.25848   1.00
C6       0.81915    0.81565    0.21922   1.00
C6       0.70030    0.73548    0.24692   1.00
H2       0.86337    0.86597    0.21670   1.00
H2       0.64902    0.69140    0.24762   1.00
H2       0.82794    0.80483    0.23463   1.00
H2       0.72946    0.71271    0.24127   1.00
C6       0.81907    0.76103    0.20460   1.00
C6       0.72741    0.76617    0.26850   1.00
H2       0.80061    0.76526    0.18965   1.00
H2       0.70556    0.79762    0.27308   1.00
C6       0.88804    0.76185    0.20154   1.00
C6       0.71523    0.71509    0.28616   1.00
H2       0.78124    0.71073    0.21024   1.00
H2       0.78221    0.80145    0.26722   1.00
C6       0.94165    0.82752    0.19053   1.00
C6       0.63831    0.67005    0.29118   1.00
C6       0.91794    0.75519    0.22198   1.00
C6       0.74537    0.66862    0.28116   1.00
C6       0.87464    0.70013    0.18806   1.00
C6       0.75140    0.75666    0.30550   1.00
H2       0.92167    0.83430    0.17618   1.00
H2       0.61524    0.70137    0.29446   1.00
H2       0.95664    0.87275    0.19974   1.00
H2       0.61036    0.63629    0.27863   1.00
H2       0.98782    0.82549    0.18722   1.00
H2       0.63066    0.63799    0.30440   1.00
H2       0.96335    0.75090    0.21957   1.00
H2       0.74095    0.63663    0.29412   1.00
H2       0.93266    0.79973    0.23153   1.00
H2       0.71848    0.63485    0.26849   1.00
H2       0.88067    0.71009    0.23025   1.00
H2       0.79919    0.69908    0.27716   1.00
H2       0.85410    0.70275    0.17332   1.00
H2       0.73143    0.78989    0.30982   1.00
H2       0.92151    0.69875    0.18538   1.00
H2       0.74396    0.72314    0.31833   1.00
H2       0.83815    0.65206    0.19523   1.00
H2       0.80620    0.78853    0.30304   1.00
C4       0.12982    0.82230    0.20148   1.00
C4       0.15677    0.79976    0.21737   1.00
C3       0.08159    0.77652    0.18713   1.00
C3       0.13215    0.72937    0.22132   1.00
C3       0.15145    0.89318    0.19962   1.00
C3       0.21032    0.84875    0.22995   1.00
C2       0.07278    0.86739    0.16994   1.00
C2       0.21348    0.75414    0.24885   1.00
C3       0.05361    0.79820    0.17189   1.00
C3       0.15978    0.70714    0.23651   1.00
C3       0.12143    0.91312    0.18396   1.00
C3       0.23732    0.82401    0.24518   1.00
H1       0.06549    0.72579    0.18708   1.00
H1       0.09275    0.69161    0.21345   1.00
C5       0.20200    0.94206    0.21308   1.00
C5       0.23526    0.92024    0.22725   1.00
H1       0.01884    0.76260    0.16207   1.00
H1       0.13994    0.65567    0.23854   1.00
H1       0.13516    0.96299    0.18224   1.00
H1       0.27574    0.85728    0.25434   1.00
C6       0.21902    1.01575    0.21233   1.00
C6       0.29671    0.97166    0.23921   1.00
H2       0.17188    1.01741    0.21110   1.00
H2       0.33515    0.95614    0.23919   1.00
H2       0.23917    1.04150    0.22671   1.00
H2       0.32339    1.02060    0.23151   1.00
C6       0.27046    1.05769    0.19500   1.00
C6       0.27863    0.98293    0.26129   1.00
H2       0.25588    1.02763    0.18104   1.00
H2       0.24347    0.93367    0.26816   1.00
C6       0.28007    1.12948    0.18986   1.00
C6       0.33910    1.02289    0.27643   1.00
H2       0.32013    1.06423    0.19911   1.00
H2       0.24990    1.00978    0.26017   1.00
C6       0.21428    1.12387    0.18075   1.00
C6       0.37613    0.98264    0.28143   1.00
C6       0.30176    1.17634    0.20877   1.00
C6       0.39151    1.09416    0.26810   1.00
C6       0.33732    1.16394    0.17371   1.00
C6       0.30996    1.03324    0.29659   1.00
H2       0.19700    1.09019    0.16756   1.00
H2       0.34029    0.93162    0.28705   1.00
H2       0.17293    1.10386    0.19177   1.00
H2       0.40149    0.97715    0.26814   1.00
H2       0.22288    1.17365    0.17592   1.00
H2       0.41506    1.00864    0.29305   1.00
H2       0.31304    1.22771    0.20473   1.00
H2       0.43080    1.12345    0.27935   1.00
H2       0.26124    1.15680    0.22008   1.00
H2       0.41701    1.08976    0.25464   1.00
H2       0.34719    1.18002    0.21572   1.00
H2       0.36649    1.12304    0.26405   1.00
H2       0.32419    1.13318    0.15992   1.00
H2       0.27309    0.98429    0.30324   1.00
H2       0.34563    1.21418    0.16951   1.00
H2       0.35030    1.06059    0.30773   1.00
H2       0.38554    1.17060    0.17940   1.00
H2       0.28432    1.06259    0.29412   1.00
C4       0.98424    0.50868    0.63492   1.00
C4       1.03729    0.53482    0.62006   1.00
C3       0.94022    0.43744    0.63805   1.00
C3       1.05465    0.49192    0.60881   1.00
C3       0.97400    0.55479    0.64723   1.00
C3       1.07502    0.60650    0.61612   1.00
C2       0.87910    0.45575    0.66563   1.00
C2       1.14231    0.58724    0.58931   1.00
C3       0.88945    0.41166    0.65299   1.00
C3       1.10530    0.51715    0.59383   1.00
C3       0.92197    0.52646    0.66235   1.00
C3       1.12595    0.63010    0.60066   1.00
H1       0.94296    0.40161    0.62945   1.00
H1       1.03162    0.44080    0.61123   1.00
C5       1.01483    0.62701    0.64420   1.00
C5       1.06181    0.65255    0.62755   1.00
H1       0.85957    0.35975    0.65455   1.00
H1       1.11521    0.48351    0.58620   1.00
H1       0.91346    0.55761    0.67150   1.00
H1       1.15353    0.68065    0.59732   1.00
C6       1.00837    0.67527    0.65873   1.00
C6       1.09696    0.72722    0.62176   1.00
H2       1.00628    0.65742    0.67421   1.00
H2       1.09587    0.73145    0.60532   1.00
H2       1.05460    0.72484    0.65912   1.00
H2       1.06787    0.75104    0.62659   1.00
C6       0.94623    0.68539    0.65388   1.00
C6       1.17131    0.76938    0.63033   1.00
H2       0.90135    0.63601    0.65055   1.00
H2       1.19799    0.74082    0.62812   1.00
C6       0.92548    0.72162    0.67030   1.00
C6       1.21769    0.84295    0.62171   1.00
H2       0.95754    0.71446    0.63979   1.00
H2       1.16766    0.77312    0.64675   1.00
C6       0.89810    0.67800    0.68984   1.00
C6       1.23456    0.84151    0.59897   1.00
C6       0.98590    0.79282    0.67587   1.00
C6       1.18438    0.88783    0.62440   1.00
C6       0.86734    0.73156    0.66158   1.00
C6       1.28611    0.87704    0.63357   1.00
H2       0.85607    0.62698    0.68638   1.00
H2       1.25715    0.80931    0.59652   1.00
H2       0.93771    0.67249    0.69748   1.00
H2       1.18909    0.82197    0.58955   1.00
H2       0.87938    0.70141    0.70062   1.00
H2       1.27065    0.89257    0.59348   1.00
H2       0.96967    0.81962    0.68622   1.00
H2       1.21910    0.94028    0.61968   1.00
H2       1.02644    0.78844    0.68336   1.00
H2       1.13834    0.86868    0.61523   1.00
H2       1.00706    0.82409    0.66232   1.00
H2       1.17068    0.88854    0.64022   1.00
H2       0.82303    0.68261    0.65759   1.00
H2       1.31213    0.84766    0.63199   1.00
H2       0.85074    0.75634    0.67257   1.00
H2       1.32051    0.92850    0.62800   1.00
H2       0.88401    0.76319    0.64796   1.00
H2       1.27770    0.88080    0.64970   1.00
C4       0.52440    0.01578    0.63491   1.00
C4       0.49747    -0.03727   0.62006   1.00
C3       0.49746    0.06008    0.63796   1.00
C3       0.43743    -0.05435   0.60873   1.00
C3       0.58047    0.02574    0.64731   1.00
C3       0.53116    -0.07531   0.61621   1.00
C2       0.57662    0.12094    0.66562   1.00
C2       0.44485    -0.14231   0.58931   1.00
C3       0.52246    0.11086    0.65290   1.00
C3       0.41202    -0.10501   0.59374   1.00
C3       0.60419    0.07779    0.66243   1.00
C3       0.50384    -0.12623   0.60075   1.00
H1       0.45910    0.05755    0.62930   1.00
H1       0.40952    -0.03109   0.61107   1.00
C5       0.61159    -0.01538   0.64437   1.00
C5       0.59017    -0.06239   0.62773   1.00
H1       0.50064    0.14095    0.65439   1.00
H1       0.36864    -0.11470   0.58605   1.00
H1       0.64366    0.08610    0.67163   1.00
H1       0.52663    -0.15402   0.59747   1.00
C6       0.66598    -0.00922   0.65899   1.00
C6       0.62946    -0.09786   0.62203   1.00
H2       0.65006    -0.00702   0.67443   1.00
H2       0.63499    -0.09681   0.60560   1.00
H2       0.66905    -0.05559   0.65942   1.00
H2       0.68231    -0.06899   0.62692   1.00
C6       0.73846    0.05269    0.65420   1.00
C6       0.59682    -0.17223   0.63061   1.00
H2       0.73426    0.09772    0.65082   1.00
H2       0.54162    -0.19868   0.62833   1.00
C6       0.79516    0.07319    0.67070   1.00
C6       0.62379    -0.21891   0.62208   1.00
H2       0.75630    0.04124    0.64015   1.00
H2       0.60398    -0.16860   0.64704   1.00
C6       0.77885    0.10075    0.69019   1.00
C6       0.60576    -0.23573   0.59932   1.00
C6       0.80550    0.01255    0.67634   1.00
C6       0.70191    -0.18594   0.62487   1.00
C6       0.86350    0.13110    0.66204   1.00
C6       0.58900    -0.28731   0.63394   1.00
H2       0.77017    0.14294    0.68667   1.00
H2       0.55102    -0.25808   0.59680   1.00
H2       0.73353    0.06129    0.69778   1.00
H2       0.63199    -0.19029   0.58991   1.00
H2       0.82082    0.11929    0.70102   1.00
H2       0.62054    -0.27202   0.59389   1.00
H2       0.84835    0.02858    0.68674   1.00
H2       0.71945    -0.22087   0.62021   1.00
H2       0.76036    -0.02786   0.68379   1.00
H2       0.72911    -0.13993   0.61570   1.00
H2       0.81565    -0.00874   0.66282   1.00
H2       0.71614    -0.17228   0.64070   1.00
H2       0.85918    0.17556    0.65800   1.00
H2       0.53364    -0.31310   0.63229   1.00
H2       0.90470    0.14752    0.67308   1.00
H2       0.60590    -0.32191   0.62843   1.00
H2       0.87850    0.11429    0.64846   1.00
H2       0.60096    -0.27894   0.65009   1.00
C4       0.49137    0.47560    0.63491   1.00
C4       0.46524    0.50252    0.62006   1.00
C3       0.56260    0.50255    0.63796   1.00
C3       0.50820    0.56258    0.60873   1.00
C3       0.44525    0.41951    0.64730   1.00
C3       0.39352    0.46883    0.61620   1.00
C2       0.54430    0.42337    0.66562   1.00
C2       0.41283    0.55515    0.58931   1.00
C3       0.58839    0.47755    0.65291   1.00
C3       0.48296    0.58799    0.59375   1.00
C3       0.47358    0.39580    0.66243   1.00
C3       0.36992    0.49615    0.60074   1.00
H1       0.59843    0.54091    0.62931   1.00
H1       0.55937    0.59049    0.61108   1.00
C5       0.37302    0.38839    0.64437   1.00
C5       0.34744    0.40981    0.62772   1.00
H1       0.64030    0.49938    0.65440   1.00
H1       0.51664    0.63137    0.58605   1.00
H1       0.44243    0.35632    0.67162   1.00
H1       0.31934    0.47335    0.59747   1.00
C6       0.32479    0.33398    0.65898   1.00
C6       0.27267    0.37051    0.62202   1.00
H2       0.34290    0.34989    0.67442   1.00
H2       0.26820    0.36499    0.60559   1.00
H2       0.27535    0.33090    0.65941   1.00
H2       0.24870    0.31765    0.62691   1.00
C6       0.31424    0.26152    0.65419   1.00
C6       0.23092    0.40313    0.63060   1.00
H2       0.36347    0.26572    0.65081   1.00
H2       0.25967    0.45833    0.62832   1.00
C6       0.27803    0.20480    0.67069   1.00
C6       0.15729    0.37615    0.62206   1.00
H2       0.28496    0.24368    0.64014   1.00
H2       0.22738    0.39596    0.64703   1.00
C6       0.32189    0.22110    0.69017   1.00
C6       0.15850    0.39419    0.59931   1.00
C6       0.20704    0.19444    0.67632   1.00
C6       0.11214    0.29803    0.62485   1.00
C6       0.26762    0.13647    0.66202   1.00
C6       0.12364    0.41092    0.63392   1.00
H2       0.37277    0.22980    0.68666   1.00
H2       0.19088    0.44893    0.59679   1.00
H2       0.32774    0.26642    0.69777   1.00
H2       0.17772    0.36798    0.58990   1.00
H2       0.29847    0.17914    0.70101   1.00
H2       0.10743    0.37940    0.59387   1.00
H2       0.18023    0.15159    0.68672   1.00
H2       0.05968    0.28049    0.62019   1.00
H2       0.21176    0.23957    0.68377   1.00
H2       0.13097    0.27084    0.61569   1.00
H2       0.17561    0.18430    0.66280   1.00
H2       0.11157    0.28380    0.64068   1.00
H2       0.31641    0.14081    0.65798   1.00
H2       0.15321    0.46628    0.63228   1.00
H2       0.24285    0.09527    0.67306   1.00
H2       0.07215    0.39402    0.62841   1.00
H2       0.23581    0.12147    0.64844   1.00
H2       0.12005    0.39895    0.65007   1.00
C4       0.49539    0.02682    0.13163   1.00
C4       0.47042    -0.02305   0.11583   1.00
C3       0.55757    0.04625    0.14207   1.00
C3       0.50919    -0.05165   0.10792   1.00
C3       0.45735    0.05895    0.13744   1.00
C3       0.40430    -0.04571   0.10741   1.00
C2       0.54763    0.13008    0.16291   1.00
C2       0.41864    -0.12635   0.08457   1.00
C3       0.58317    0.09652    0.15716   1.00
C3       0.48407    -0.10197   0.09284   1.00
C3       0.48538    0.11017    0.15280   1.00
C3       0.38045    -0.09731   0.09215   1.00
H1       0.58626    0.02411    0.13924   1.00
H1       0.55740    -0.03650   0.11268   1.00
C5       0.39299    0.03947    0.12807   1.00
C5       0.36406    -0.01672   0.11415   1.00
H1       0.62845    0.10841    0.16406   1.00
H1       0.51445    -0.12074   0.08784   1.00
H1       0.46005    0.13450    0.15724   1.00
H1       0.33352    -0.11507   0.08589   1.00
C6       0.35687    0.07888    0.13280   1.00
C6       0.29146    -0.04625   0.10669   1.00
H2       0.39398    0.13325    0.13274   1.00
H2       0.26640    -0.10172   0.10705   1.00
H2       0.32293    0.07509    0.12058   1.00
H2       0.26050    -0.03656   0.11728   1.00
C6       0.31553    0.05628    0.15314   1.00
C6       0.28656    -0.01944   0.08519   1.00
H2       0.34620    0.05035    0.16490   1.00
H2       0.32483    -0.01978   0.07516   1.00
C6       0.28886    0.10298    0.16185   1.00
C6       0.21613    -0.05731   0.07404   1.00
H2       0.27183    0.00526    0.15085   1.00
H2       0.30125    0.03422    0.08675   1.00
C6       0.34834    0.17339    0.16859   1.00
C6       0.19651    -0.13135   0.06830   1.00
C6       0.24387    0.11372    0.14626   1.00
C6       0.15846    -0.05872   0.08705   1.00
C6       0.24455    0.06781    0.18085   1.00
C6       0.22151    -0.01861   0.05407   1.00
H2       0.38172    0.16754    0.17936   1.00
H2       0.23673    -0.13219   0.05938   1.00
H2       0.37925    0.20275    0.15573   1.00
H2       0.18775    -0.16272   0.08171   1.00
H2       0.32921    0.20374    0.17592   1.00
H2       0.14978    -0.15571   0.05932   1.00
H2       0.22160    0.14221    0.15296   1.00
H2       0.11066    -0.08084   0.07859   1.00
H2       0.27379    0.14247    0.13316   1.00
H2       0.14936    -0.08936   0.10068   1.00
H2       0.20240    0.06486    0.14094   1.00
H2       0.17165    -0.00729   0.09166   1.00
H2       0.27418    0.05967    0.19245   1.00
H2       0.26115    -0.01676   0.04421   1.00
H2       0.22506    0.09877    0.18757   1.00
H2       0.17357    -0.04344   0.04565   1.00
H2       0.20083    0.01833    0.17698   1.00
H2       0.23393    0.03372    0.05715   1.00
C4       0.98358    0.47647    0.13474   1.00
C4       1.03482    0.50588    0.11938   1.00
C3       0.98758    0.43736    0.15106   1.00
C3       1.09691    0.50438    0.12042   1.00
C3       0.92573    0.48590    0.13397   1.00
C3       1.02449    0.53835    0.10224   1.00
C2       0.88170    0.41977    0.16635   1.00
C2       1.13701    0.56240    0.08785   1.00
C3       0.93844    0.41012    0.16645   1.00
C3       1.14636    0.53143    0.10511   1.00
C3       0.87701    0.45764    0.15000   1.00
C3       1.07594    0.56494    0.08692   1.00
H1       1.02601    0.42664    0.15227   1.00
H1       1.10883    0.48417    0.13244   1.00
C5       0.91744    0.52236    0.11745   1.00
C5       0.96430    0.54397    0.10076   1.00
H1       0.94441    0.38263    0.17785   1.00
H1       1.18993    0.52848    0.10673   1.00
H1       0.83542    0.46366    0.15006   1.00
H1       1.07022    0.58797    0.07444   1.00
C6       0.85992    0.53818    0.11795   1.00
C6       0.95064    0.57188    0.08157   1.00
H2       0.85667    0.55554    0.13311   1.00
H2       0.96178    0.54968    0.06848   1.00
H2       0.87152    0.58268    0.10883   1.00
H2       0.89655    0.55350    0.07953   1.00
C6       0.78983    0.47691    0.11092   1.00
C6       0.99046    0.65176    0.08065   1.00
H2       0.78232    0.42979    0.11785   1.00
H2       1.04309    0.67115    0.08557   1.00
C6       0.72430    0.48178    0.11504   1.00
C6       0.99242    0.68595    0.05983   1.00
H2       0.79314    0.47020    0.09463   1.00
H2       0.96816    0.67014    0.09195   1.00
C6       0.70964    0.48044    0.13807   1.00
C6       1.03317    0.67126    0.04365   1.00
C6       0.72978    0.54688    0.10551   1.00
C6       0.91973    0.66215    0.05169   1.00
C6       0.66233    0.41901    0.10525   1.00
C6       1.02891    0.76439    0.06291   1.00
H2       0.70658    0.43561    0.14531   1.00
H2       1.08441    0.68648    0.04906   1.00
H2       0.74931    0.52549    0.14572   1.00
H2       1.00801    0.61730    0.03981   1.00
H2       0.66142    0.47908    0.14075   1.00
H2       1.03828    0.69911    0.02964   1.00
H2       0.68207    0.54735    0.10721   1.00
H2       0.92157    0.68987    0.03794   1.00
H2       0.76974    0.59263    0.11284   1.00
H2       0.89341    0.60802    0.04794   1.00
H2       0.74152    0.54980    0.08937   1.00
H2       0.88948    0.67061    0.06297   1.00
H2       0.65572    0.37156    0.11162   1.00
H2       1.08086    0.78397    0.06846   1.00
H2       0.61514    0.41987    0.10784   1.00
H2       1.03195    0.79064    0.04873   1.00
H2       0.66901    0.41785    0.08889   1.00
H2       1.00173    0.77814    0.07389   1.00
C4       0.52421    0.50832    0.13488   1.00
C4       0.49466    0.53031    0.11961   1.00
C3       0.57102    0.55380    0.14957   1.00
C3       0.50419    0.59745    0.11926   1.00
C3       0.50694    0.43838    0.13570   1.00
C3       0.45379    0.48404    0.10400   1.00
C2       0.58141    0.46327    0.16638   1.00
C2       0.43771    0.57588    0.08818   1.00
C3       0.59855    0.53203    0.16491   1.00
C3       0.47693    0.61976    0.10399   1.00
C3       0.53580    0.41820    0.15163   1.00
C3       0.42725    0.50889    0.08866   1.00
H1       0.58739    0.60459    0.14955   1.00
H1       0.53074    0.63245    0.13021   1.00
C5       0.46233    0.39078    0.12081   1.00
C5       0.44002    0.41495    0.10403   1.00
H1       0.63182    0.56730    0.17510   1.00
H1       0.48589    0.66889    0.10455   1.00
H1       0.52439    0.36882    0.15280   1.00
H1       0.39835    0.47765    0.07723   1.00
C6       0.43879    0.31568    0.12313   1.00
C6       0.40287    0.36875    0.08627   1.00
H2       0.42500    0.30093    0.13891   1.00
H2       0.42339    0.39695    0.07220   1.00
H2       0.39053    0.28390    0.11546   1.00
H2       0.41491    0.32814    0.08472   1.00
C6       0.49236    0.29632    0.11536   1.00
C6       0.32350    0.33653    0.08747   1.00
H2       0.54318    0.33417    0.12066   1.00
H2       0.31115    0.37558    0.09196   1.00
C6       0.48051    0.22405    0.12104   1.00
C6       0.28115    0.30047    0.06800   1.00
H2       0.49460    0.30094    0.09885   1.00
H2       0.30506    0.29955    0.09986   1.00
C6       0.48748    0.21702    0.14420   1.00
C6       0.29642    0.35196    0.05050   1.00
C6       0.40971    0.16663    0.11387   1.00
C6       0.29465    0.24337    0.06059   1.00
C6       0.53576    0.21377    0.11031   1.00
C6       0.20416    0.26732    0.07320   1.00
H2       0.53655    0.25753    0.14980   1.00
H2       0.28844    0.39357    0.05535   1.00
H2       0.44745    0.21953    0.15263   1.00
H2       0.34882    0.37417    0.04522   1.00
H2       0.48386    0.16830    0.14784   1.00
H2       0.26328    0.32721    0.03750   1.00
H2       0.40391    0.11644    0.11659   1.00
H2       0.26134    0.21537    0.04791   1.00
H2       0.36886    0.16868    0.12200   1.00
H2       0.34711    0.26453    0.05541   1.00
H2       0.40292    0.17126    0.09768   1.00
H2       0.28565    0.20718    0.07276   1.00
H2       0.58686    0.25269    0.11502   1.00
H2       0.19172    0.30567    0.07833   1.00
H2       0.52989    0.16406    0.11392   1.00
H2       0.17240    0.24181    0.06000   1.00
H2       0.53257    0.21679    0.09386   1.00
H2       0.18988    0.22938    0.08520   1.00
C4       0.69359    0.82802    0.70175   1.00
C4       0.64357    0.80279    0.71751   1.00
C3       0.71775    0.89328    0.69270   1.00
C3       0.61958    0.84370    0.72678   1.00
C3       0.72097    0.78707    0.69455   1.00
C3       0.61602    0.73418    0.72448   1.00
C2       0.79716    0.88048    0.67057   1.00
C2       0.54000    0.75081    0.74869   1.00
C3       0.76820    0.91896    0.67766   1.00
C3       0.56914    0.81853    0.74183   1.00
C3       0.77254    0.81526    0.67928   1.00
C3       0.56446    0.71039    0.73976   1.00
H1       0.69912    0.92433    0.69656   1.00
H1       0.63834    0.89354    0.72309   1.00
C5       0.69659    0.71980    0.70247   1.00
C5       0.64023    0.69144    0.71633   1.00
H1       0.78363    0.96653    0.67180   1.00
H1       0.55383    0.85054    0.74785   1.00
H1       0.79358    0.78788    0.67388   1.00
H1       0.54330    0.66177    0.74500   1.00
C6       0.73106    0.67997    0.69629   1.00
C6       0.60557    0.61692    0.72227   1.00
H2       0.78614    0.71378    0.69661   1.00
H2       0.55051    0.59579    0.72198   1.00
H2       0.72424    0.64227    0.70765   1.00
H2       0.61228    0.58636    0.71077   1.00
C6       0.70625    0.64368    0.67523   1.00
C6       0.63031    0.60458    0.74322   1.00
H2       0.70351    0.67873    0.66438   1.00
H2       0.63316    0.64203    0.75423   1.00
C6       0.74858    0.61394    0.66524   1.00
C6       0.58782    0.53219    0.75300   1.00
H2       0.65374    0.60221    0.67705   1.00
H2       0.68277    0.61554    0.74134   1.00
C6       0.82104    0.67114    0.65913   1.00
C6       0.51542    0.51691    0.75919   1.00
C6       0.75458    0.56274    0.67946   1.00
C6       0.58165    0.47542    0.73855   1.00
C6       0.71151    0.57534    0.64560   1.00
C6       0.62482    0.52984    0.77255   1.00
H2       0.81859    0.70877    0.64935   1.00
H2       0.51799    0.55669    0.76915   1.00
H2       0.85150    0.69774    0.67238   1.00
H2       0.48499    0.51361    0.74600   1.00
H2       0.84842    0.65033    0.65093   1.00
H2       0.48793    0.46845    0.76725   1.00
H2       0.77990    0.53868    0.67183   1.00
H2       0.55620    0.42577    0.74603   1.00
H2       0.78438    0.58830    0.69293   1.00
H2       0.55188    0.47175    0.72513   1.00
H2       0.70427    0.52269    0.68433   1.00
H2       0.63191    0.48572    0.73362   1.00
H2       0.70656    0.60947    0.63492   1.00
H2       0.62988    0.56857    0.78339   1.00
H2       0.73942    0.55397    0.63798   1.00
H2       0.59679    0.48029    0.78002   1.00
H2       0.66043    0.53336    0.64897   1.00
H2       0.67584    0.53890    0.76912   1.00
C4       0.12944    0.30791    0.70137   1.00
C4       0.15431    0.35942    0.71670   1.00
C3       0.13803    0.24981    0.70253   1.00
C3       0.18304    0.35294    0.73521   1.00
C3       0.09461    0.31394    0.68410   1.00
C3       0.15064    0.42003    0.71366   1.00
C2       0.07623    0.20202    0.67089   1.00
C2       0.20769    0.46502    0.74727   1.00
C3       0.11199    0.19825    0.68783   1.00
C3       0.20925    0.40420    0.75001   1.00
C3       0.06854    0.26012    0.66952   1.00
C3       0.17825    0.47118    0.72906   1.00
H1       0.16411    0.24311    0.71401   1.00
H1       0.18537    0.31044    0.73873   1.00
C5       0.08690    0.37267    0.68166   1.00
C5       0.11968    0.42822    0.69570   1.00
H1       0.11966    0.15751    0.68959   1.00
H1       0.22955    0.39653    0.76300   1.00
H1       0.04309    0.26235    0.65710   1.00
H1       0.17699    0.51517    0.72738   1.00
C6       0.04373    0.37494    0.66448   1.00
C6       0.12266    0.49550    0.69170   1.00
H2       -0.00293   0.32567    0.66339   1.00
H2       0.17378    0.53706    0.69514   1.00
H2       0.02378    0.40862    0.66791   1.00
H2       0.11862    0.50334    0.67561   1.00
C6       0.08258    0.39679    0.64371   1.00
C6       0.06672    0.50323    0.70345   1.00
H2       0.11109    0.37005    0.64151   1.00
H2       0.06369    0.48587    0.71908   1.00
C6       0.03931    0.38640    0.62413   1.00
C6       0.07410    0.57574    0.70410   1.00
H2       0.12121    0.45072    0.64481   1.00
H2       0.01737    0.46786    0.69669   1.00
C6       -0.00965   0.30973    0.61963   1.00
C6       0.13779    0.62691    0.71637   1.00
C6       -0.00248   0.42338    0.62571   1.00
C6       0.07794    0.60443    0.68250   1.00
C6       0.08860    0.41697    0.60581   1.00
C6       0.01042    0.57008    0.71483   1.00
H2       0.01818    0.28194    0.61875   1.00
H2       0.13717    0.60761    0.73160   1.00
H2       -0.04847   0.28590    0.63134   1.00
H2       0.18480    0.63657    0.70898   1.00
H2       -0.03609   0.30287    0.60523   1.00
H2       0.13989    0.67590    0.71793   1.00
H2       -0.02859   0.41993    0.61147   1.00
H2       0.07815    0.65271    0.68308   1.00
H2       -0.04124   0.40067    0.63751   1.00
H2       0.12439    0.61383    0.67476   1.00
H2       0.03063    0.47721    0.62931   1.00
H2       0.03438    0.56870    0.67340   1.00
H2       0.11890    0.39206    0.60389   1.00
H2       0.00572    0.55067    0.73026   1.00
H2       0.06067    0.41054    0.59172   1.00
H2       0.01342    0.61964    0.71577   1.00
H2       0.12364    0.47144    0.60791   1.00
H2       -0.03619   0.53563    0.70663   1.00
C4       0.17805    0.87036    0.70143   1.00
C4       0.20464    0.84555    0.71679   1.00
C3       0.11019    0.85887    0.70206   1.00
C3       0.16788    0.81385    0.73486   1.00
C3       0.22016    0.90813    0.68468   1.00
C3       0.27048    0.85234    0.71424   1.00
C2       0.12529    0.92337    0.67091   1.00
C2       0.25692    0.79234    0.74739   1.00
C3       0.08461    0.88480    0.68734   1.00
C3       0.19296    0.78772    0.74967   1.00
C3       0.19230    0.93397    0.67007   1.00
C3       0.29401    0.82471    0.72963   1.00
H1       0.07659    0.83065    0.71312   1.00
H1       0.12179    0.80918    0.73804   1.00
C5       0.28794    0.91889    0.68277   1.00
C5       0.31109    0.88633    0.69677   1.00
H1       0.03532    0.87495    0.68870   1.00
H1       0.16384    0.76520    0.76233   1.00
H1       0.22083    0.96145    0.65802   1.00
H1       0.34036    0.82814    0.72830   1.00
C6       0.33436    0.96500    0.66619   1.00
C6       0.37735    0.88673    0.69321   1.00
H2       0.32969    1.01056    0.66537   1.00
H2       0.36952    0.83602    0.69627   1.00
H2       0.38783    0.98648    0.67013   1.00
H2       0.39114    0.89301    0.67725   1.00
C6       0.32111    0.92863    0.64508   1.00
C6       0.43851    0.94288    0.70576   1.00
H2       0.26623    0.89857    0.64231   1.00
H2       0.42196    0.94345    0.72129   1.00
C6       0.35496    0.97454    0.62602   1.00
C6       0.50529    0.93851    0.70683   1.00
H2       0.33837    0.89147    0.64606   1.00
H2       0.45132    0.99245    0.69941   1.00
C6       0.32495    1.02161    0.62161   1.00
C6       0.49400    0.87439    0.71862   1.00
C6       0.43334    1.01868    0.62842   1.00
C6       0.53330    0.93829    0.68541   1.00
C6       0.34017    0.92764    0.60728   1.00
C6       0.56043    1.00207    0.71836   1.00
H2       0.26951    0.99206    0.62016   1.00
H2       0.47316    0.87245    0.73371   1.00
H2       0.33716    1.05887    0.63366   1.00
H2       0.45883    0.82765    0.71068   1.00
H2       0.34539    1.04992    0.60753   1.00
H2       0.54181    0.87425    0.72051   1.00
H2       0.45692    1.04679    0.61451   1.00
H2       0.58234    0.94016    0.68634   1.00
H2       0.44662    1.05592    0.64056   1.00
H2       0.49845    0.89215    0.67713   1.00
H2       0.45559    0.98688    0.63196   1.00
H2       0.54036    0.98219    0.67663   1.00
H2       0.28537    0.89580    0.60477   1.00
H2       0.54345    1.00428    0.73370   1.00
H2       0.36245    0.95744    0.59352   1.00
H2       0.60802    1.00111    0.71963   1.00
H2       0.36136    0.89405    0.60930   1.00
H2       0.57168    1.04904    0.71054   1.00
