data_IRMOF10_SG202_interpen_Ligand7lp_label_c.

_audit_creation_method             'generated by an auxiliary program of Tobunporous'

_symmetry_space_group_name_H-M     'P 1'
_symmetry_Int_Tables_number        1
_symmetry_cell_setting             triclinic

_cell_length_a                    34.2800
_cell_length_b                    34.2800
_cell_length_c                    34.2800
_cell_angle_alpha                 90.0000
_cell_angle_beta                  90.0000
_cell_angle_gamma                 90.0000

loop_
_atom_site_label
_atom_site_fract_x
_atom_site_fract_y
_atom_site_fract_z
_atom_site_occupancy
O1       0.75000    0.75000    0.75000   1.00
Zn1      0.71720    0.78280    0.78280   1.00
Zn1      0.78280    0.71720    0.78280   1.00
Zn1      0.78280    0.78280    0.71720   1.00
Zn1      0.71720    0.71720    0.71720   1.00
O2       0.72650    0.77350    0.83820   1.00
O2       0.72650    0.83820    0.77350   1.00
O2       0.66180    0.77350    0.77350   1.00
O2       0.77350    0.72650    0.83820   1.00
O2       0.83820    0.72650    0.77350   1.00
O2       0.77350    0.66180    0.77350   1.00
O2       0.77350    0.83820    0.72650   1.00
O2       0.83820    0.77350    0.72650   1.00
O2       0.77350    0.77350    0.66180   1.00
O2       0.66180    0.72650    0.72650   1.00
O2       0.72650    0.66180    0.72650   1.00
O2       0.72650    0.72650    0.66180   1.00
C1       0.75000    0.75000    0.85520   1.00
C1       0.75000    0.85520    0.75000   1.00
C1       0.64480    0.75000    0.75000   1.00
C1       0.85520    0.75000    0.75000   1.00
C1       0.75000    0.64480    0.75000   1.00
C1       0.75000    0.75000    0.64480   1.00
O1       0.25000    0.25000    0.75000   1.00
Zn1      0.21720    0.28280    0.78280   1.00
Zn1      0.28280    0.21720    0.78280   1.00
Zn1      0.28280    0.28280    0.71720   1.00
Zn1      0.21720    0.21720    0.71720   1.00
O2       0.22650    0.27350    0.83820   1.00
O2       0.22650    0.33820    0.77350   1.00
O2       0.16180    0.27350    0.77350   1.00
O2       0.27350    0.22650    0.83820   1.00
O2       0.33820    0.22650    0.77350   1.00
O2       0.27350    0.16180    0.77350   1.00
O2       0.27350    0.33820    0.72650   1.00
O2       0.33820    0.27350    0.72650   1.00
O2       0.27350    0.27350    0.66180   1.00
O2       0.16180    0.22650    0.72650   1.00
O2       0.22650    0.16180    0.72650   1.00
O2       0.22650    0.22650    0.66180   1.00
C1       0.25000    0.25000    0.85520   1.00
C1       0.25000    0.35520    0.75000   1.00
C1       0.14480    0.25000    0.75000   1.00
C1       0.35520    0.25000    0.75000   1.00
C1       0.25000    0.14480    0.75000   1.00
C1       0.25000    0.25000    0.64480   1.00
O1       0.25000    0.75000    0.25000   1.00
Zn1      0.21720    0.78280    0.28280   1.00
Zn1      0.28280    0.71720    0.28280   1.00
Zn1      0.28280    0.78280    0.21720   1.00
Zn1      0.21720    0.71720    0.21720   1.00
O2       0.22650    0.77350    0.33820   1.00
O2       0.22650    0.83820    0.27350   1.00
O2       0.16180    0.77350    0.27350   1.00
O2       0.27350    0.72650    0.33820   1.00
O2       0.33820    0.72650    0.27350   1.00
O2       0.27350    0.66180    0.27350   1.00
O2       0.27350    0.83820    0.22650   1.00
O2       0.33820    0.77350    0.22650   1.00
O2       0.27350    0.77350    0.16180   1.00
O2       0.16180    0.72650    0.22650   1.00
O2       0.22650    0.66180    0.22650   1.00
O2       0.22650    0.72650    0.16180   1.00
C1       0.25000    0.75000    0.35520   1.00
C1       0.25000    0.85520    0.25000   1.00
C1       0.14480    0.75000    0.25000   1.00
C1       0.35520    0.75000    0.25000   1.00
C1       0.25000    0.64480    0.25000   1.00
C1       0.25000    0.75000    0.14480   1.00
O1       0.75000    0.25000    0.25000   1.00
Zn1      0.71720    0.28280    0.28280   1.00
Zn1      0.78280    0.21720    0.28280   1.00
Zn1      0.78280    0.28280    0.21720   1.00
Zn1      0.71720    0.21720    0.21720   1.00
O2       0.72650    0.27350    0.33820   1.00
O2       0.72650    0.33820    0.27350   1.00
O2       0.66180    0.27350    0.27350   1.00
O2       0.77350    0.22650    0.33820   1.00
O2       0.83820    0.22650    0.27350   1.00
O2       0.77350    0.16180    0.27350   1.00
O2       0.77350    0.33820    0.22650   1.00
O2       0.83820    0.27350    0.22650   1.00
O2       0.77350    0.27350    0.16180   1.00
O2       0.66180    0.22650    0.22650   1.00
O2       0.72650    0.16180    0.22650   1.00
O2       0.72650    0.22650    0.16180   1.00
C1       0.75000    0.25000    0.35520   1.00
C1       0.75000    0.35520    0.25000   1.00
C1       0.64480    0.25000    0.25000   1.00
C1       0.85520    0.25000    0.25000   1.00
C1       0.75000    0.14480    0.25000   1.00
C1       0.75000    0.25000    0.14480   1.00
O1       0.25000    0.25000    0.25000   1.00
Zn1      0.28280    0.21720    0.21720   1.00
Zn1      0.21720    0.28280    0.21720   1.00
Zn1      0.21720    0.21720    0.28280   1.00
Zn1      0.28280    0.28280    0.28280   1.00
O2       0.27350    0.22650    0.16180   1.00
O2       0.27350    0.16180    0.22650   1.00
O2       0.33820    0.22650    0.22650   1.00
O2       0.22650    0.27350    0.16180   1.00
O2       0.16180    0.27350    0.22650   1.00
O2       0.22650    0.33820    0.22650   1.00
O2       0.22650    0.16180    0.27350   1.00
O2       0.16180    0.22650    0.27350   1.00
O2       0.22650    0.22650    0.33820   1.00
O2       0.33820    0.27350    0.27350   1.00
O2       0.27350    0.33820    0.27350   1.00
O2       0.27350    0.27350    0.33820   1.00
C1       0.25000    0.25000    0.14480   1.00
C1       0.25000    0.14480    0.25000   1.00
C1       0.35520    0.25000    0.25000   1.00
C1       0.14480    0.25000    0.25000   1.00
C1       0.25000    0.35520    0.25000   1.00
C1       0.25000    0.25000    0.35520   1.00
O1       0.75000    0.75000    0.25000   1.00
Zn1      0.78280    0.71720    0.21720   1.00
Zn1      0.71720    0.78280    0.21720   1.00
Zn1      0.71720    0.71720    0.28280   1.00
Zn1      0.78280    0.78280    0.28280   1.00
O2       0.77350    0.72650    0.16180   1.00
O2       0.77350    0.66180    0.22650   1.00
O2       0.83820    0.72650    0.22650   1.00
O2       0.72650    0.77350    0.16180   1.00
O2       0.66180    0.77350    0.22650   1.00
O2       0.72650    0.83820    0.22650   1.00
O2       0.72650    0.66180    0.27350   1.00
O2       0.66180    0.72650    0.27350   1.00
O2       0.72650    0.72650    0.33820   1.00
O2       0.83820    0.77350    0.27350   1.00
O2       0.77350    0.83820    0.27350   1.00
O2       0.77350    0.77350    0.33820   1.00
C1       0.75000    0.75000    0.14480   1.00
C1       0.75000    0.64480    0.25000   1.00
C1       0.85520    0.75000    0.25000   1.00
C1       0.64480    0.75000    0.25000   1.00
C1       0.75000    0.85520    0.25000   1.00
C1       0.75000    0.75000    0.35520   1.00
O1       0.75000    0.25000    0.75000   1.00
Zn1      0.78280    0.21720    0.71720   1.00
Zn1      0.71720    0.28280    0.71720   1.00
Zn1      0.71720    0.21720    0.78280   1.00
Zn1      0.78280    0.28280    0.78280   1.00
O2       0.77350    0.22650    0.66180   1.00
O2       0.77350    0.16180    0.72650   1.00
O2       0.83820    0.22650    0.72650   1.00
O2       0.72650    0.27350    0.66180   1.00
O2       0.66180    0.27350    0.72650   1.00
O2       0.72650    0.33820    0.72650   1.00
O2       0.72650    0.16180    0.77350   1.00
O2       0.66180    0.22650    0.77350   1.00
O2       0.72650    0.22650    0.83820   1.00
O2       0.83820    0.27350    0.77350   1.00
O2       0.77350    0.33820    0.77350   1.00
O2       0.77350    0.27350    0.83820   1.00
C1       0.75000    0.25000    0.64480   1.00
C1       0.75000    0.14480    0.75000   1.00
C1       0.85520    0.25000    0.75000   1.00
C1       0.64480    0.25000    0.75000   1.00
C1       0.75000    0.35520    0.75000   1.00
C1       0.75000    0.25000    0.85520   1.00
O1       0.25000    0.75000    0.75000   1.00
Zn1      0.28280    0.71720    0.71720   1.00
Zn1      0.21720    0.78280    0.71720   1.00
Zn1      0.21720    0.71720    0.78280   1.00
Zn1      0.28280    0.78280    0.78280   1.00
O2       0.27350    0.72650    0.66180   1.00
O2       0.27350    0.66180    0.72650   1.00
O2       0.33820    0.72650    0.72650   1.00
O2       0.22650    0.77350    0.66180   1.00
O2       0.16180    0.77350    0.72650   1.00
O2       0.22650    0.83820    0.72650   1.00
O2       0.22650    0.66180    0.77350   1.00
O2       0.16180    0.72650    0.77350   1.00
O2       0.22650    0.72650    0.83820   1.00
O2       0.33820    0.77350    0.77350   1.00
O2       0.27350    0.83820    0.77350   1.00
O2       0.27350    0.77350    0.83820   1.00
C1       0.25000    0.75000    0.64480   1.00
C1       0.25000    0.64480    0.75000   1.00
C1       0.35520    0.75000    0.75000   1.00
C1       0.14480    0.75000    0.75000   1.00
C1       0.25000    0.85520    0.75000   1.00
C1       0.25000    0.75000    0.85520   1.00
O1       1.00000    1.00000    1.00000   1.00
Zn1      0.96720    1.03280    1.03280   1.00
Zn1      1.03280    0.96720    1.03280   1.00
Zn1      1.03280    1.03280    0.96720   1.00
Zn1      0.96720    0.96720    0.96720   1.00
O2       0.97650    1.02350    1.08820   1.00
O2       0.97650    1.08820    1.02350   1.00
O2       0.91180    1.02350    1.02350   1.00
O2       1.02350    0.97650    1.08820   1.00
O2       1.08820    0.97650    1.02350   1.00
O2       1.02350    0.91180    1.02350   1.00
O2       1.02350    1.08820    0.97650   1.00
O2       1.08820    1.02350    0.97650   1.00
O2       1.02350    1.02350    0.91180   1.00
O2       0.91180    0.97650    0.97650   1.00
O2       0.97650    0.91180    0.97650   1.00
O2       0.97650    0.97650    0.91180   1.00
C1       1.00000    1.00000    1.10520   1.00
C1       1.00000    1.10520    1.00000   1.00
C1       0.89480    1.00000    1.00000   1.00
C1       1.10520    1.00000    1.00000   1.00
C1       1.00000    0.89480    1.00000   1.00
C1       1.00000    1.00000    0.89480   1.00
O1       0.50000    0.50000    1.00000   1.00
Zn1      0.46720    0.53280    1.03280   1.00
Zn1      0.53280    0.46720    1.03280   1.00
Zn1      0.53280    0.53280    0.96720   1.00
Zn1      0.46720    0.46720    0.96720   1.00
O2       0.47650    0.52350    1.08820   1.00
O2       0.47650    0.58820    1.02350   1.00
O2       0.41180    0.52350    1.02350   1.00
O2       0.52350    0.47650    1.08820   1.00
O2       0.58820    0.47650    1.02350   1.00
O2       0.52350    0.41180    1.02350   1.00
O2       0.52350    0.58820    0.97650   1.00
O2       0.58820    0.52350    0.97650   1.00
O2       0.52350    0.52350    0.91180   1.00
O2       0.41180    0.47650    0.97650   1.00
O2       0.47650    0.41180    0.97650   1.00
O2       0.47650    0.47650    0.91180   1.00
C1       0.50000    0.50000    1.10520   1.00
C1       0.50000    0.60520    1.00000   1.00
C1       0.39480    0.50000    1.00000   1.00
C1       0.60520    0.50000    1.00000   1.00
C1       0.50000    0.39480    1.00000   1.00
C1       0.50000    0.50000    0.89480   1.00
O1       0.50000    1.00000    0.50000   1.00
Zn1      0.46720    1.03280    0.53280   1.00
Zn1      0.53280    0.96720    0.53280   1.00
Zn1      0.53280    1.03280    0.46720   1.00
Zn1      0.46720    0.96720    0.46720   1.00
O2       0.47650    1.02350    0.58820   1.00
O2       0.47650    1.08820    0.52350   1.00
O2       0.41180    1.02350    0.52350   1.00
O2       0.52350    0.97650    0.58820   1.00
O2       0.58820    0.97650    0.52350   1.00
O2       0.52350    0.91180    0.52350   1.00
O2       0.52350    1.08820    0.47650   1.00
O2       0.58820    1.02350    0.47650   1.00
O2       0.52350    1.02350    0.41180   1.00
O2       0.41180    0.97650    0.47650   1.00
O2       0.47650    0.91180    0.47650   1.00
O2       0.47650    0.97650    0.41180   1.00
C1       0.50000    1.00000    0.60520   1.00
C1       0.50000    1.10520    0.50000   1.00
C1       0.39480    1.00000    0.50000   1.00
C1       0.60520    1.00000    0.50000   1.00
C1       0.50000    0.89480    0.50000   1.00
C1       0.50000    1.00000    0.39480   1.00
O1       1.00000    0.50000    0.50000   1.00
Zn1      0.96720    0.53280    0.53280   1.00
Zn1      1.03280    0.46720    0.53280   1.00
Zn1      1.03280    0.53280    0.46720   1.00
Zn1      0.96720    0.46720    0.46720   1.00
O2       0.97650    0.52350    0.58820   1.00
O2       0.97650    0.58820    0.52350   1.00
O2       0.91180    0.52350    0.52350   1.00
O2       1.02350    0.47650    0.58820   1.00
O2       1.08820    0.47650    0.52350   1.00
O2       1.02350    0.41180    0.52350   1.00
O2       1.02350    0.58820    0.47650   1.00
O2       1.08820    0.52350    0.47650   1.00
O2       1.02350    0.52350    0.41180   1.00
O2       0.91180    0.47650    0.47650   1.00
O2       0.97650    0.41180    0.47650   1.00
O2       0.97650    0.47650    0.41180   1.00
C1       1.00000    0.50000    0.60520   1.00
C1       1.00000    0.60520    0.50000   1.00
C1       0.89480    0.50000    0.50000   1.00
C1       1.10520    0.50000    0.50000   1.00
C1       1.00000    0.39480    0.50000   1.00
C1       1.00000    0.50000    0.39480   1.00
O1       0.50000    0.50000    0.50000   1.00
Zn1      0.53280    0.46720    0.46720   1.00
Zn1      0.46720    0.53280    0.46720   1.00
Zn1      0.46720    0.46720    0.53280   1.00
Zn1      0.53280    0.53280    0.53280   1.00
O2       0.52350    0.47650    0.41180   1.00
O2       0.52350    0.41180    0.47650   1.00
O2       0.58820    0.47650    0.47650   1.00
O2       0.47650    0.52350    0.41180   1.00
O2       0.41180    0.52350    0.47650   1.00
O2       0.47650    0.58820    0.47650   1.00
O2       0.47650    0.41180    0.52350   1.00
O2       0.41180    0.47650    0.52350   1.00
O2       0.47650    0.47650    0.58820   1.00
O2       0.58820    0.52350    0.52350   1.00
O2       0.52350    0.58820    0.52350   1.00
O2       0.52350    0.52350    0.58820   1.00
C1       0.50000    0.50000    0.39480   1.00
C1       0.50000    0.39480    0.50000   1.00
C1       0.60520    0.50000    0.50000   1.00
C1       0.39480    0.50000    0.50000   1.00
C1       0.50000    0.60520    0.50000   1.00
C1       0.50000    0.50000    0.60520   1.00
O1       1.00000    1.00000    0.50000   1.00
Zn1      1.03280    0.96720    0.46720   1.00
Zn1      0.96720    1.03280    0.46720   1.00
Zn1      0.96720    0.96720    0.53280   1.00
Zn1      1.03280    1.03280    0.53280   1.00
O2       1.02350    0.97650    0.41180   1.00
O2       1.02350    0.91180    0.47650   1.00
O2       1.08820    0.97650    0.47650   1.00
O2       0.97650    1.02350    0.41180   1.00
O2       0.91180    1.02350    0.47650   1.00
O2       0.97650    1.08820    0.47650   1.00
O2       0.97650    0.91180    0.52350   1.00
O2       0.91180    0.97650    0.52350   1.00
O2       0.97650    0.97650    0.58820   1.00
O2       1.08820    1.02350    0.52350   1.00
O2       1.02350    1.08820    0.52350   1.00
O2       1.02350    1.02350    0.58820   1.00
C1       1.00000    1.00000    0.39480   1.00
C1       1.00000    0.89480    0.50000   1.00
C1       1.10520    1.00000    0.50000   1.00
C1       0.89480    1.00000    0.50000   1.00
C1       1.00000    1.10520    0.50000   1.00
C1       1.00000    1.00000    0.60520   1.00
O1       1.00000    0.50000    1.00000   1.00
Zn1      1.03280    0.46720    0.96720   1.00
Zn1      0.96720    0.53280    0.96720   1.00
Zn1      0.96720    0.46720    1.03280   1.00
Zn1      1.03280    0.53280    1.03280   1.00
O2       1.02350    0.47650    0.91180   1.00
O2       1.02350    0.41180    0.97650   1.00
O2       1.08820    0.47650    0.97650   1.00
O2       0.97650    0.52350    0.91180   1.00
O2       0.91180    0.52350    0.97650   1.00
O2       0.97650    0.58820    0.97650   1.00
O2       0.97650    0.41180    1.02350   1.00
O2       0.91180    0.47650    1.02350   1.00
O2       0.97650    0.47650    1.08820   1.00
O2       1.08820    0.52350    1.02350   1.00
O2       1.02350    0.58820    1.02350   1.00
O2       1.02350    0.52350    1.08820   1.00
C1       1.00000    0.50000    0.89480   1.00
C1       1.00000    0.39480    1.00000   1.00
C1       1.10520    0.50000    1.00000   1.00
C1       0.89480    0.50000    1.00000   1.00
C1       1.00000    0.60520    1.00000   1.00
C1       1.00000    0.50000    1.10520   1.00
O1       0.50000    1.00000    1.00000   1.00
Zn1      0.53280    0.96720    0.96720   1.00
Zn1      0.46720    1.03280    0.96720   1.00
Zn1      0.46720    0.96720    1.03280   1.00
Zn1      0.53280    1.03280    1.03280   1.00
O2       0.52350    0.97650    0.91180   1.00
O2       0.52350    0.91180    0.97650   1.00
O2       0.58820    0.97650    0.97650   1.00
O2       0.47650    1.02350    0.91180   1.00
O2       0.41180    1.02350    0.97650   1.00
O2       0.47650    1.08820    0.97650   1.00
O2       0.47650    0.91180    1.02350   1.00
O2       0.41180    0.97650    1.02350   1.00
O2       0.47650    0.97650    1.08820   1.00
O2       0.58820    1.02350    1.02350   1.00
O2       0.52350    1.08820    1.02350   1.00
O2       0.52350    1.02350    1.08820   1.00
C1       0.50000    1.00000    0.89480   1.00
C1       0.50000    0.89480    1.00000   1.00
C1       0.60520    1.00000    1.00000   1.00
C1       0.39480    1.00000    1.00000   1.00
C1       0.50000    1.10520    1.00000   1.00
C1       0.50000    1.00000    1.10520   1.00
C5       0.73348    0.87570    1.13218   1.00
H2       0.70819    0.86240    1.14745   1.00
H2       0.72094    0.89669    1.11090   1.00
C5       0.75939    0.89717    1.16194   1.00
C5       0.74271    0.93784    1.17123   1.00
H2       0.78947    0.90050    1.15015   1.00
O3       0.81761    0.77109    0.98000   1.00
C4       0.74972    0.74968    1.02100   1.00
C3c      0.73868    0.78282    1.04243   1.00
H1       0.72983    0.80901    1.02725   1.00
C3d      0.76062    0.71567    1.04135   1.00
C3       0.73938    0.78295    1.08354   1.00
O2       0.72368    0.81469    1.10248   1.00
C3       0.76207    0.71594    1.08227   1.00
H1       0.77194    0.68962    1.09657   1.00
C2       0.75140    0.74933    1.10439   1.00
C5       0.84561    0.74089    0.97879   1.00
H2       0.85467    0.73373    0.94838   1.00
H2       0.83418    0.71374    0.99266   1.00
C5       0.88139    0.75478    1.00129   1.00
H2       0.87214    0.76298    1.03137   1.00
H2       0.89277    0.78168    0.98698   1.00
C5       0.91301    0.72290    1.00262   1.00
H2       0.92219    0.71438    0.97268   1.00
H2       0.90212    0.69652    1.01811   1.00
C5       0.94923    0.73807    1.02445   1.00
C5       0.74298    0.65909    1.01105   1.00
C5       0.75334    0.84218    1.11070   1.00
H2       0.72269    0.67441    0.99088   1.00
H2       0.72622    0.64911    1.03712   1.00
H2       0.76671    0.85286    1.08300   1.00
H2       0.77732    0.82962    1.12895   1.00
H2       0.76066    0.88108    1.19030   1.00
H2       0.71698    0.61747    0.94247   1.00
H2       0.70336    0.59320    0.98763   1.00
C2       0.75243    0.74887    0.89605   1.00
C3       0.71747    0.74004    0.91597   1.00
O2       0.68711    0.72188    0.89674   1.00
C3       0.78550    0.75973    0.91826   1.00
H1       0.81241    0.76764    0.90385   1.00
C3a      0.71658    0.74124    0.95713   1.00
H1       0.69025    0.73224    0.97202   1.00
C3b      0.78488    0.75968    0.95922   1.00
C4       0.75028    0.75032    0.97900   1.00
O3       0.77456    0.68328    1.02167   1.00
C5       0.65788    0.74926    0.88720   1.00
H2       0.64601    0.76367    0.91391   1.00
C5       0.62529    0.72694    0.86674   1.00
H2       0.66948    0.77220    0.86726   1.00
H2       0.60724    0.71210    0.88932   1.00
H2       0.63918    0.70346    0.84907   1.00
C5       0.59967    0.75320    0.84082   1.00
H2       0.58856    0.77819    0.85824   1.00
C5       0.56466    0.73023    0.82453   1.00
H2       0.61631    0.76439    0.81507   1.00
C5       0.75974    0.62357    0.99017   1.00
H2       0.77450    0.60471    1.01215   1.00
H2       0.78268    0.63378    0.96952   1.00
C5       0.72814    0.60059    0.96800   1.00
C5       0.74533    0.56219    0.95225   1.00
H2       0.71762    0.93485    1.19286   1.00
C5       0.77494    0.96351    1.18912   1.00
H2       0.73159    0.95191    1.14323   1.00
C5       0.97681    0.70375    1.03337   1.00
H2       0.96505    0.76037    1.00551   1.00
H2       0.93981    0.75241    1.05293   1.00
C5       0.53590    0.75866    0.80497   1.00
H2       0.57537    0.70813    0.80211   1.00
H2       0.54934    0.71429    0.84937   1.00
H2       0.77365    0.56857    0.93602   1.00
H2       0.75149    0.54158    0.97761   1.00
C5       0.71596    0.54304    0.92417   1.00
H2       0.79914    0.94414    1.20116   1.00
H2       0.78741    0.98357    1.16571   1.00
H2       0.76212    0.98184    1.21374   1.00
H2       0.96565    0.67633    1.01820   1.00
H2       1.00734    0.71089    1.02229   1.00
H2       0.97785    0.69860    1.06621   1.00
H2       0.55288    0.78230    0.78889   1.00
H2       0.51686    0.74204    0.78336   1.00
H2       0.51666    0.77268    0.82819   1.00
H2       0.72223    0.55302    0.89307   1.00
H2       0.71884    0.50996    0.92598   1.00
H2       0.68507    0.55196    0.93266   1.00
C5       0.87570    1.13218    0.73348   1.00
H2       0.86240    1.14745    0.70819   1.00
H2       0.89669    1.11090    0.72094   1.00
C5       0.89717    1.16194    0.75939   1.00
C5       0.93784    1.17123    0.74271   1.00
H2       0.90050    1.15015    0.78947   1.00
O3       0.77109    0.98000    0.81761   1.00
C4       0.74968    1.02100    0.74972   1.00
C3c      0.78282    1.04243    0.73868   1.00
H1       0.80901    1.02725    0.72983   1.00
C3d      0.71567    1.04135    0.76062   1.00
C3       0.78295    1.08354    0.73938   1.00
O2       0.81469    1.10248    0.72368   1.00
C3       0.71594    1.08227    0.76207   1.00
H1       0.68962    1.09657    0.77194   1.00
C2       0.74933    1.10439    0.75140   1.00
C5       0.74089    0.97879    0.84561   1.00
H2       0.73373    0.94838    0.85467   1.00
H2       0.71374    0.99266    0.83418   1.00
C5       0.75478    1.00129    0.88139   1.00
H2       0.76298    1.03137    0.87214   1.00
H2       0.78168    0.98698    0.89277   1.00
C5       0.72290    1.00262    0.91301   1.00
H2       0.71438    0.97268    0.92219   1.00
H2       0.69652    1.01811    0.90212   1.00
C5       0.73807    1.02445    0.94923   1.00
C5       0.65909    1.01105    0.74298   1.00
C5       0.84218    1.11070    0.75334   1.00
H2       0.67441    0.99088    0.72269   1.00
H2       0.64911    1.03712    0.72622   1.00
H2       0.85286    1.08300    0.76671   1.00
H2       0.82962    1.12895    0.77732   1.00
H2       0.88108    1.19030    0.76066   1.00
H2       0.61747    0.94247    0.71698   1.00
H2       0.59320    0.98763    0.70336   1.00
C2       0.74887    0.89605    0.75243   1.00
C3       0.74004    0.91597    0.71747   1.00
O2       0.72188    0.89674    0.68711   1.00
C3       0.75973    0.91826    0.78550   1.00
H1       0.76764    0.90385    0.81241   1.00
C3a      0.74124    0.95713    0.71658   1.00
H1       0.73224    0.97202    0.69025   1.00
C3b      0.75968    0.95922    0.78488   1.00
C4       0.75032    0.97900    0.75028   1.00
O3       0.68328    1.02167    0.77456   1.00
C5       0.74926    0.88720    0.65788   1.00
H2       0.76367    0.91391    0.64601   1.00
C5       0.72694    0.86674    0.62529   1.00
H2       0.77220    0.86726    0.66948   1.00
H2       0.71210    0.88932    0.60724   1.00
H2       0.70346    0.84907    0.63918   1.00
C5       0.75320    0.84082    0.59967   1.00
H2       0.77819    0.85824    0.58856   1.00
C5       0.73023    0.82453    0.56466   1.00
H2       0.76439    0.81507    0.61631   1.00
C5       0.62357    0.99017    0.75974   1.00
H2       0.60471    1.01215    0.77450   1.00
H2       0.63378    0.96952    0.78268   1.00
C5       0.60059    0.96800    0.72814   1.00
C5       0.56219    0.95225    0.74533   1.00
H2       0.93485    1.19286    0.71762   1.00
C5       0.96351    1.18912    0.77494   1.00
H2       0.95191    1.14323    0.73159   1.00
C5       0.70375    1.03337    0.97681   1.00
H2       0.76037    1.00551    0.96505   1.00
H2       0.75241    1.05293    0.93981   1.00
C5       0.75866    0.80497    0.53590   1.00
H2       0.70813    0.80211    0.57537   1.00
H2       0.71429    0.84937    0.54934   1.00
H2       0.56857    0.93602    0.77365   1.00
H2       0.54158    0.97761    0.75149   1.00
C5       0.54304    0.92417    0.71596   1.00
H2       0.94414    1.20116    0.79914   1.00
H2       0.98357    1.16571    0.78741   1.00
H2       0.98184    1.21374    0.76212   1.00
H2       0.67633    1.01820    0.96565   1.00
H2       0.71089    1.02229    1.00734   1.00
H2       0.69860    1.06621    0.97785   1.00
H2       0.78230    0.78889    0.55288   1.00
H2       0.74204    0.78336    0.51686   1.00
H2       0.77268    0.82819    0.51666   1.00
H2       0.55302    0.89307    0.72223   1.00
H2       0.50996    0.92598    0.71884   1.00
H2       0.55196    0.93266    0.68507   1.00
C5       0.36782    0.73348    0.62430   1.00
H2       0.35255    0.70819    0.63760   1.00
H2       0.38910    0.72094    0.60331   1.00
C5       0.33806    0.75939    0.60283   1.00
C5       0.32877    0.74271    0.56216   1.00
H2       0.34985    0.78947    0.59950   1.00
O3       0.52000    0.81761    0.72891   1.00
C4       0.47900    0.74972    0.75032   1.00
C3c      0.45757    0.73868    0.71718   1.00
H1       0.47275    0.72983    0.69099   1.00
C3d      0.45865    0.76062    0.78433   1.00
C3       0.41646    0.73938    0.71705   1.00
O2       0.39752    0.72368    0.68531   1.00
C3       0.41773    0.76207    0.78406   1.00
H1       0.40343    0.77194    0.81038   1.00
C2       0.39561    0.75140    0.75067   1.00
C5       0.52121    0.84561    0.75911   1.00
H2       0.55162    0.85467    0.76627   1.00
H2       0.50734    0.83418    0.78626   1.00
C5       0.49871    0.88139    0.74522   1.00
H2       0.46863    0.87214    0.73702   1.00
H2       0.51302    0.89277    0.71832   1.00
C5       0.49738    0.91301    0.77710   1.00
H2       0.52732    0.92219    0.78562   1.00
H2       0.48189    0.90212    0.80348   1.00
C5       0.47555    0.94923    0.76193   1.00
C5       0.48895    0.74298    0.84091   1.00
C5       0.38930    0.75334    0.65782   1.00
H2       0.50912    0.72269    0.82559   1.00
H2       0.46288    0.72622    0.85089   1.00
H2       0.41700    0.76671    0.64714   1.00
H2       0.37105    0.77732    0.67038   1.00
H2       0.30970    0.76066    0.61892   1.00
H2       0.55753    0.71698    0.88253   1.00
H2       0.51237    0.70336    0.90680   1.00
C2       0.60395    0.75243    0.75113   1.00
C3       0.58403    0.71747    0.75996   1.00
O2       0.60326    0.68711    0.77812   1.00
C3       0.58174    0.78550    0.74027   1.00
H1       0.59615    0.81241    0.73236   1.00
C3a      0.54287    0.71658    0.75876   1.00
H1       0.52798    0.69025    0.76776   1.00
C3b      0.54078    0.78488    0.74032   1.00
C4       0.52100    0.75028    0.74968   1.00
O3       0.47833    0.77456    0.81672   1.00
C5       0.61280    0.65788    0.75074   1.00
H2       0.58609    0.64601    0.73633   1.00
C5       0.63326    0.62529    0.77306   1.00
H2       0.63274    0.66948    0.72780   1.00
H2       0.61068    0.60724    0.78790   1.00
H2       0.65093    0.63918    0.79654   1.00
C5       0.65918    0.59967    0.74680   1.00
H2       0.64176    0.58856    0.72181   1.00
C5       0.67547    0.56466    0.76977   1.00
H2       0.68493    0.61631    0.73561   1.00
C5       0.50983    0.75974    0.87643   1.00
H2       0.48785    0.77450    0.89529   1.00
H2       0.53048    0.78268    0.86622   1.00
C5       0.53200    0.72814    0.89941   1.00
C5       0.54775    0.74533    0.93781   1.00
H2       0.30714    0.71762    0.56515   1.00
C5       0.31088    0.77494    0.53649   1.00
H2       0.35677    0.73159    0.54809   1.00
C5       0.46663    0.97681    0.79625   1.00
H2       0.49449    0.96505    0.73963   1.00
H2       0.44707    0.93981    0.74759   1.00
C5       0.69503    0.53590    0.74134   1.00
H2       0.69789    0.57537    0.79187   1.00
H2       0.65063    0.54934    0.78571   1.00
H2       0.56398    0.77365    0.93143   1.00
H2       0.52239    0.75149    0.95842   1.00
C5       0.57583    0.71596    0.95696   1.00
H2       0.29884    0.79914    0.55586   1.00
H2       0.33429    0.78741    0.51643   1.00
H2       0.28626    0.76212    0.51816   1.00
H2       0.48180    0.96565    0.82367   1.00
H2       0.47771    1.00734    0.78911   1.00
H2       0.43379    0.97785    0.80140   1.00
H2       0.71111    0.55288    0.71770   1.00
H2       0.71664    0.51686    0.75796   1.00
H2       0.67181    0.51666    0.72732   1.00
H2       0.60693    0.72223    0.94698   1.00
H2       0.57402    0.71884    0.99004   1.00
H2       0.56734    0.68507    0.94804   1.00
C5       1.13218    0.73348    0.87570   1.00
H2       1.14745    0.70819    0.86240   1.00
H2       1.11090    0.72094    0.89669   1.00
C5       1.16194    0.75939    0.89717   1.00
C5       1.17123    0.74271    0.93784   1.00
H2       1.15015    0.78947    0.90050   1.00
O3       0.98000    0.81761    0.77109   1.00
C4       1.02100    0.74972    0.74968   1.00
C3c      1.04243    0.73868    0.78282   1.00
H1       1.02725    0.72983    0.80901   1.00
C3d      1.04135    0.76062    0.71567   1.00
C3       1.08354    0.73938    0.78295   1.00
O2       1.10248    0.72368    0.81469   1.00
C3       1.08227    0.76207    0.71594   1.00
H1       1.09657    0.77194    0.68962   1.00
C2       1.10439    0.75140    0.74933   1.00
C5       0.97879    0.84561    0.74089   1.00
H2       0.94838    0.85467    0.73373   1.00
H2       0.99266    0.83418    0.71374   1.00
C5       1.00129    0.88139    0.75478   1.00
H2       1.03137    0.87214    0.76298   1.00
H2       0.98698    0.89277    0.78168   1.00
C5       1.00262    0.91301    0.72290   1.00
H2       0.97268    0.92219    0.71438   1.00
H2       1.01811    0.90212    0.69652   1.00
C5       1.02445    0.94923    0.73807   1.00
C5       1.01105    0.74298    0.65909   1.00
C5       1.11070    0.75334    0.84218   1.00
H2       0.99088    0.72269    0.67441   1.00
H2       1.03712    0.72622    0.64911   1.00
H2       1.08300    0.76671    0.85286   1.00
H2       1.12895    0.77732    0.82962   1.00
H2       1.19030    0.76066    0.88108   1.00
H2       0.94247    0.71698    0.61747   1.00
H2       0.98763    0.70336    0.59320   1.00
C2       0.89605    0.75243    0.74887   1.00
C3       0.91597    0.71747    0.74004   1.00
O2       0.89674    0.68711    0.72188   1.00
C3       0.91826    0.78550    0.75973   1.00
H1       0.90385    0.81241    0.76764   1.00
C3a      0.95713    0.71658    0.74124   1.00
H1       0.97202    0.69025    0.73224   1.00
C3b      0.95922    0.78488    0.75968   1.00
C4       0.97900    0.75028    0.75032   1.00
O3       1.02167    0.77456    0.68328   1.00
C5       0.88720    0.65788    0.74926   1.00
H2       0.91391    0.64601    0.76367   1.00
C5       0.86674    0.62529    0.72694   1.00
H2       0.86726    0.66948    0.77220   1.00
H2       0.88932    0.60724    0.71210   1.00
H2       0.84907    0.63918    0.70346   1.00
C5       0.84082    0.59967    0.75320   1.00
H2       0.85824    0.58856    0.77819   1.00
C5       0.82453    0.56466    0.73023   1.00
H2       0.81507    0.61631    0.76439   1.00
C5       0.99017    0.75974    0.62357   1.00
H2       1.01215    0.77450    0.60471   1.00
H2       0.96952    0.78268    0.63378   1.00
C5       0.96800    0.72814    0.60059   1.00
C5       0.95225    0.74533    0.56219   1.00
H2       1.19286    0.71762    0.93485   1.00
C5       1.18912    0.77494    0.96351   1.00
H2       1.14323    0.73159    0.95191   1.00
C5       1.03337    0.97681    0.70375   1.00
H2       1.00551    0.96505    0.76037   1.00
H2       1.05293    0.93981    0.75241   1.00
C5       0.80497    0.53590    0.75866   1.00
H2       0.80211    0.57537    0.70813   1.00
H2       0.84937    0.54934    0.71429   1.00
H2       0.93602    0.77365    0.56857   1.00
H2       0.97761    0.75149    0.54158   1.00
C5       0.92417    0.71596    0.54304   1.00
H2       1.20116    0.79914    0.94414   1.00
H2       1.16571    0.78741    0.98357   1.00
H2       1.21374    0.76212    0.98184   1.00
H2       1.01820    0.96565    0.67633   1.00
H2       1.02229    1.00734    0.71089   1.00
H2       1.06621    0.97785    0.69860   1.00
H2       0.78889    0.55288    0.78230   1.00
H2       0.78336    0.51686    0.74204   1.00
H2       0.82819    0.51666    0.77268   1.00
H2       0.89307    0.72223    0.55302   1.00
H2       0.92598    0.71884    0.50996   1.00
H2       0.93266    0.68507    0.55196   1.00
C5       0.62430    0.36782    0.73348   1.00
H2       0.63760    0.35255    0.70819   1.00
H2       0.60331    0.38910    0.72094   1.00
C5       0.60283    0.33806    0.75939   1.00
C5       0.56216    0.32877    0.74271   1.00
H2       0.59950    0.34985    0.78947   1.00
O3       0.72891    0.52000    0.81761   1.00
C4       0.75032    0.47900    0.74972   1.00
C3c      0.71718    0.45757    0.73868   1.00
H1       0.69099    0.47275    0.72983   1.00
C3d      0.78433    0.45865    0.76062   1.00
C3       0.71705    0.41646    0.73938   1.00
O2       0.68531    0.39752    0.72368   1.00
C3       0.78406    0.41773    0.76207   1.00
H1       0.81038    0.40343    0.77194   1.00
C2       0.75067    0.39561    0.75140   1.00
C5       0.75911    0.52121    0.84561   1.00
H2       0.76627    0.55162    0.85467   1.00
H2       0.78626    0.50734    0.83418   1.00
C5       0.74522    0.49871    0.88139   1.00
H2       0.73702    0.46863    0.87214   1.00
H2       0.71832    0.51302    0.89277   1.00
C5       0.77710    0.49738    0.91301   1.00
H2       0.78562    0.52732    0.92219   1.00
H2       0.80348    0.48189    0.90212   1.00
C5       0.76193    0.47555    0.94923   1.00
C5       0.84091    0.48895    0.74298   1.00
C5       0.65782    0.38930    0.75334   1.00
H2       0.82559    0.50912    0.72269   1.00
H2       0.85089    0.46288    0.72622   1.00
H2       0.64714    0.41700    0.76671   1.00
H2       0.67038    0.37105    0.77732   1.00
H2       0.61892    0.30970    0.76066   1.00
H2       0.88253    0.55753    0.71698   1.00
H2       0.90680    0.51237    0.70336   1.00
C2       0.75113    0.60395    0.75243   1.00
C3       0.75996    0.58403    0.71747   1.00
O2       0.77812    0.60326    0.68711   1.00
C3       0.74027    0.58174    0.78550   1.00
H1       0.73236    0.59615    0.81241   1.00
C3a      0.75876    0.54287    0.71658   1.00
H1       0.76776    0.52798    0.69025   1.00
C3b      0.74032    0.54078    0.78488   1.00
C4       0.74968    0.52100    0.75028   1.00
O3       0.81672    0.47833    0.77456   1.00
C5       0.75074    0.61280    0.65788   1.00
H2       0.73633    0.58609    0.64601   1.00
C5       0.77306    0.63326    0.62529   1.00
H2       0.72780    0.63274    0.66948   1.00
H2       0.78790    0.61068    0.60724   1.00
H2       0.79654    0.65093    0.63918   1.00
C5       0.74680    0.65918    0.59967   1.00
H2       0.72181    0.64176    0.58856   1.00
C5       0.76977    0.67547    0.56466   1.00
H2       0.73561    0.68493    0.61631   1.00
C5       0.87643    0.50983    0.75974   1.00
H2       0.89529    0.48785    0.77450   1.00
H2       0.86622    0.53048    0.78268   1.00
C5       0.89941    0.53200    0.72814   1.00
C5       0.93781    0.54775    0.74533   1.00
H2       0.56515    0.30714    0.71762   1.00
C5       0.53649    0.31088    0.77494   1.00
H2       0.54809    0.35677    0.73159   1.00
C5       0.79625    0.46663    0.97681   1.00
H2       0.73963    0.49449    0.96505   1.00
H2       0.74759    0.44707    0.93981   1.00
C5       0.74134    0.69503    0.53590   1.00
H2       0.79187    0.69789    0.57537   1.00
H2       0.78571    0.65063    0.54934   1.00
H2       0.93143    0.56398    0.77365   1.00
H2       0.95842    0.52239    0.75149   1.00
C5       0.95696    0.57583    0.71596   1.00
H2       0.55586    0.29884    0.79914   1.00
H2       0.51643    0.33429    0.78741   1.00
H2       0.51816    0.28626    0.76212   1.00
H2       0.82367    0.48180    0.96565   1.00
H2       0.78911    0.47771    1.00734   1.00
H2       0.80140    0.43379    0.97785   1.00
H2       0.71770    0.71111    0.55288   1.00
H2       0.75796    0.71664    0.51686   1.00
H2       0.72732    0.67181    0.51666   1.00
H2       0.94698    0.60693    0.72223   1.00
H2       0.99004    0.57402    0.71884   1.00
H2       0.94804    0.56734    0.68507   1.00
C5       0.73348    0.62430    0.36782   1.00
H2       0.70819    0.63760    0.35255   1.00
H2       0.72094    0.60331    0.38910   1.00
C5       0.75939    0.60283    0.33806   1.00
C5       0.74271    0.56216    0.32877   1.00
H2       0.78947    0.59950    0.34985   1.00
O3       0.81761    0.72891    0.52000   1.00
C4       0.74972    0.75032    0.47900   1.00
C3c      0.73868    0.71718    0.45757   1.00
H1       0.72983    0.69099    0.47275   1.00
C3d      0.76062    0.78433    0.45865   1.00
C3       0.73938    0.71705    0.41646   1.00
O2       0.72368    0.68531    0.39752   1.00
C3       0.76207    0.78406    0.41773   1.00
H1       0.77194    0.81038    0.40343   1.00
C2       0.75140    0.75067    0.39561   1.00
C5       0.84561    0.75911    0.52121   1.00
H2       0.85467    0.76627    0.55162   1.00
H2       0.83418    0.78626    0.50734   1.00
C5       0.88139    0.74522    0.49871   1.00
H2       0.87214    0.73702    0.46863   1.00
H2       0.89277    0.71832    0.51302   1.00
C5       0.91301    0.77710    0.49738   1.00
H2       0.92219    0.78562    0.52732   1.00
H2       0.90212    0.80348    0.48189   1.00
C5       0.94923    0.76193    0.47555   1.00
C5       0.74298    0.84091    0.48895   1.00
C5       0.75334    0.65782    0.38930   1.00
H2       0.72269    0.82559    0.50912   1.00
H2       0.72622    0.85089    0.46288   1.00
H2       0.76671    0.64714    0.41700   1.00
H2       0.77732    0.67038    0.37105   1.00
H2       0.76066    0.61892    0.30970   1.00
H2       0.71698    0.88253    0.55753   1.00
H2       0.70336    0.90680    0.51237   1.00
C2       0.75243    0.75113    0.60395   1.00
C3       0.71747    0.75996    0.58403   1.00
O2       0.68711    0.77812    0.60326   1.00
C3       0.78550    0.74027    0.58174   1.00
H1       0.81241    0.73236    0.59615   1.00
C3a      0.71658    0.75876    0.54287   1.00
H1       0.69025    0.76776    0.52798   1.00
C3b      0.78488    0.74032    0.54078   1.00
C4       0.75028    0.74968    0.52100   1.00
O3       0.77456    0.81672    0.47833   1.00
C5       0.65788    0.75074    0.61280   1.00
H2       0.64601    0.73633    0.58609   1.00
C5       0.62529    0.77306    0.63326   1.00
H2       0.66948    0.72780    0.63274   1.00
H2       0.60724    0.78790    0.61068   1.00
H2       0.63918    0.79654    0.65093   1.00
C5       0.59967    0.74680    0.65918   1.00
H2       0.58856    0.72181    0.64176   1.00
C5       0.56466    0.76977    0.67547   1.00
H2       0.61631    0.73561    0.68493   1.00
C5       0.75974    0.87643    0.50983   1.00
H2       0.77450    0.89529    0.48785   1.00
H2       0.78268    0.86622    0.53048   1.00
C5       0.72814    0.89941    0.53200   1.00
C5       0.74533    0.93781    0.54775   1.00
H2       0.71762    0.56515    0.30714   1.00
C5       0.77494    0.53649    0.31088   1.00
H2       0.73159    0.54809    0.35677   1.00
C5       0.97681    0.79625    0.46663   1.00
H2       0.96505    0.73963    0.49449   1.00
H2       0.93981    0.74759    0.44707   1.00
C5       0.53590    0.74134    0.69503   1.00
H2       0.57537    0.79187    0.69789   1.00
H2       0.54934    0.78571    0.65063   1.00
H2       0.77365    0.93143    0.56398   1.00
H2       0.75149    0.95842    0.52239   1.00
C5       0.71596    0.95696    0.57583   1.00
H2       0.79914    0.55586    0.29884   1.00
H2       0.78741    0.51643    0.33429   1.00
H2       0.76212    0.51816    0.28626   1.00
H2       0.96565    0.82367    0.48180   1.00
H2       1.00734    0.78911    0.47771   1.00
H2       0.97785    0.80140    0.43379   1.00
H2       0.55288    0.71770    0.71111   1.00
H2       0.51686    0.75796    0.71664   1.00
H2       0.51666    0.72732    0.67181   1.00
H2       0.72223    0.94698    0.60693   1.00
H2       0.71884    0.99004    0.57402   1.00
H2       0.68507    0.94804    0.56734   1.00
C5       0.23348    0.37570    1.13218   1.00
H2       0.20819    0.36240    1.14745   1.00
H2       0.22094    0.39669    1.11090   1.00
C5       0.25939    0.39717    1.16194   1.00
C5       0.24271    0.43784    1.17123   1.00
H2       0.28947    0.40050    1.15015   1.00
O3       0.31761    0.27109    0.98000   1.00
C4       0.24972    0.24968    1.02100   1.00
C3c      0.23868    0.28282    1.04243   1.00
H1       0.22983    0.30901    1.02725   1.00
C3d      0.26062    0.21567    1.04135   1.00
C3       0.23938    0.28295    1.08354   1.00
O2       0.22368    0.31469    1.10248   1.00
C3       0.26207    0.21594    1.08227   1.00
H1       0.27194    0.18962    1.09657   1.00
C2       0.25140    0.24933    1.10439   1.00
C5       0.34561    0.24089    0.97879   1.00
H2       0.35467    0.23373    0.94838   1.00
H2       0.33418    0.21374    0.99266   1.00
C5       0.38139    0.25478    1.00129   1.00
H2       0.37214    0.26298    1.03137   1.00
H2       0.39277    0.28168    0.98698   1.00
C5       0.41301    0.22290    1.00262   1.00
H2       0.42219    0.21438    0.97268   1.00
H2       0.40212    0.19652    1.01811   1.00
C5       0.44923    0.23807    1.02445   1.00
C5       0.24298    0.15909    1.01105   1.00
C5       0.25334    0.34218    1.11070   1.00
H2       0.22269    0.17441    0.99088   1.00
H2       0.22622    0.14911    1.03712   1.00
H2       0.26671    0.35286    1.08300   1.00
H2       0.27732    0.32962    1.12895   1.00
H2       0.26066    0.38108    1.19030   1.00
H2       0.21698    0.11747    0.94247   1.00
H2       0.20336    0.09320    0.98763   1.00
C2       0.25243    0.24887    0.89605   1.00
C3       0.21747    0.24004    0.91597   1.00
O2       0.18711    0.22188    0.89674   1.00
C3       0.28550    0.25973    0.91826   1.00
H1       0.31241    0.26764    0.90385   1.00
C3a      0.21658    0.24124    0.95713   1.00
H1       0.19025    0.23224    0.97202   1.00
C3b      0.28488    0.25968    0.95922   1.00
C4       0.25028    0.25032    0.97900   1.00
O3       0.27456    0.18328    1.02167   1.00
C5       0.15788    0.24926    0.88720   1.00
H2       0.14601    0.26367    0.91391   1.00
C5       0.12529    0.22694    0.86674   1.00
H2       0.16948    0.27220    0.86726   1.00
H2       0.10724    0.21210    0.88932   1.00
H2       0.13918    0.20346    0.84907   1.00
C5       0.09967    0.25320    0.84082   1.00
H2       0.08856    0.27819    0.85824   1.00
C5       0.06466    0.23023    0.82453   1.00
H2       0.11631    0.26439    0.81507   1.00
C5       0.25974    0.12357    0.99017   1.00
H2       0.27450    0.10471    1.01215   1.00
H2       0.28268    0.13378    0.96952   1.00
C5       0.22814    0.10059    0.96800   1.00
C5       0.24533    0.06219    0.95225   1.00
H2       0.21762    0.43485    1.19286   1.00
C5       0.27494    0.46351    1.18912   1.00
H2       0.23159    0.45191    1.14323   1.00
C5       0.47681    0.20375    1.03337   1.00
H2       0.46505    0.26037    1.00551   1.00
H2       0.43981    0.25241    1.05293   1.00
C5       0.03590    0.25866    0.80497   1.00
H2       0.07537    0.20813    0.80211   1.00
H2       0.04934    0.21429    0.84937   1.00
H2       0.27365    0.06857    0.93602   1.00
H2       0.25149    0.04158    0.97761   1.00
C5       0.21596    0.04304    0.92417   1.00
H2       0.29914    0.44414    1.20116   1.00
H2       0.28741    0.48357    1.16571   1.00
H2       0.26212    0.48184    1.21374   1.00
H2       0.46565    0.17633    1.01820   1.00
H2       0.50734    0.21089    1.02229   1.00
H2       0.47785    0.19860    1.06621   1.00
H2       0.05288    0.28230    0.78889   1.00
H2       0.01686    0.24204    0.78336   1.00
H2       0.01666    0.27268    0.82819   1.00
H2       0.22223    0.05302    0.89307   1.00
H2       0.21884    0.00996    0.92598   1.00
H2       0.18507    0.05196    0.93266   1.00
C5       0.37570    0.63218    0.73348   1.00
H2       0.36240    0.64745    0.70819   1.00
H2       0.39669    0.61090    0.72094   1.00
C5       0.39717    0.66194    0.75939   1.00
C5       0.43784    0.67123    0.74271   1.00
H2       0.40050    0.65015    0.78947   1.00
O3       0.27109    0.48000    0.81761   1.00
C4       0.24968    0.52100    0.74972   1.00
C3c      0.28282    0.54243    0.73868   1.00
H1       0.30901    0.52725    0.72983   1.00
C3d      0.21567    0.54135    0.76062   1.00
C3       0.28295    0.58354    0.73938   1.00
O2       0.31469    0.60248    0.72368   1.00
C3       0.21594    0.58227    0.76207   1.00
H1       0.18962    0.59657    0.77194   1.00
C2       0.24933    0.60439    0.75140   1.00
C5       0.24089    0.47879    0.84561   1.00
H2       0.23373    0.44838    0.85467   1.00
H2       0.21374    0.49266    0.83418   1.00
C5       0.25478    0.50129    0.88139   1.00
H2       0.26298    0.53137    0.87214   1.00
H2       0.28168    0.48698    0.89277   1.00
C5       0.22290    0.50262    0.91301   1.00
H2       0.21438    0.47268    0.92219   1.00
H2       0.19652    0.51811    0.90212   1.00
C5       0.23807    0.52445    0.94923   1.00
C5       0.15909    0.51105    0.74298   1.00
C5       0.34218    0.61070    0.75334   1.00
H2       0.17441    0.49088    0.72269   1.00
H2       0.14911    0.53712    0.72622   1.00
H2       0.35286    0.58300    0.76671   1.00
H2       0.32962    0.62895    0.77732   1.00
H2       0.38108    0.69030    0.76066   1.00
H2       0.11747    0.44247    0.71698   1.00
H2       0.09320    0.48763    0.70336   1.00
C2       0.24887    0.39605    0.75243   1.00
C3       0.24004    0.41597    0.71747   1.00
O2       0.22188    0.39674    0.68711   1.00
C3       0.25973    0.41826    0.78550   1.00
H1       0.26764    0.40385    0.81241   1.00
C3a      0.24124    0.45713    0.71658   1.00
H1       0.23224    0.47202    0.69025   1.00
C3b      0.25968    0.45922    0.78488   1.00
C4       0.25032    0.47900    0.75028   1.00
O3       0.18328    0.52167    0.77456   1.00
C5       0.24926    0.38720    0.65788   1.00
H2       0.26367    0.41391    0.64601   1.00
C5       0.22694    0.36674    0.62529   1.00
H2       0.27220    0.36726    0.66948   1.00
H2       0.21210    0.38932    0.60724   1.00
H2       0.20346    0.34907    0.63918   1.00
C5       0.25320    0.34082    0.59967   1.00
H2       0.27819    0.35824    0.58856   1.00
C5       0.23023    0.32453    0.56466   1.00
H2       0.26439    0.31507    0.61631   1.00
C5       0.12357    0.49017    0.75974   1.00
H2       0.10471    0.51215    0.77450   1.00
H2       0.13378    0.46952    0.78268   1.00
C5       0.10059    0.46800    0.72814   1.00
C5       0.06219    0.45225    0.74533   1.00
H2       0.43485    0.69286    0.71762   1.00
C5       0.46351    0.68912    0.77494   1.00
H2       0.45191    0.64323    0.73159   1.00
C5       0.20375    0.53337    0.97681   1.00
H2       0.26037    0.50551    0.96505   1.00
H2       0.25241    0.55293    0.93981   1.00
C5       0.25866    0.30497    0.53590   1.00
H2       0.20813    0.30211    0.57537   1.00
H2       0.21429    0.34937    0.54934   1.00
H2       0.06857    0.43602    0.77365   1.00
H2       0.04158    0.47761    0.75149   1.00
C5       0.04304    0.42417    0.71596   1.00
H2       0.44414    0.70116    0.79914   1.00
H2       0.48357    0.66571    0.78741   1.00
H2       0.48184    0.71374    0.76212   1.00
H2       0.17633    0.51820    0.96565   1.00
H2       0.21089    0.52229    1.00734   1.00
H2       0.19860    0.56621    0.97785   1.00
H2       0.28230    0.28889    0.55288   1.00
H2       0.24204    0.28336    0.51686   1.00
H2       0.27268    0.32819    0.51666   1.00
H2       0.05302    0.39307    0.72223   1.00
H2       0.00996    0.42598    0.71884   1.00
H2       0.05196    0.43266    0.68507   1.00
C5       -0.13218   0.23348    0.62430   1.00
H2       -0.14745   0.20819    0.63760   1.00
H2       -0.11090   0.22094    0.60331   1.00
C5       -0.16194   0.25939    0.60283   1.00
C5       -0.17123   0.24271    0.56216   1.00
H2       -0.15015   0.28947    0.59950   1.00
O3       0.02000    0.31761    0.72891   1.00
C4       -0.02100   0.24972    0.75032   1.00
C3c      -0.04243   0.23868    0.71718   1.00
H1       -0.02725   0.22983    0.69099   1.00
C3d      -0.04135   0.26062    0.78433   1.00
C3       -0.08354   0.23938    0.71705   1.00
O2       -0.10248   0.22368    0.68531   1.00
C3       -0.08227   0.26207    0.78406   1.00
H1       -0.09657   0.27194    0.81038   1.00
C2       -0.10439   0.25140    0.75067   1.00
C5       0.02121    0.34561    0.75911   1.00
H2       0.05162    0.35467    0.76627   1.00
H2       0.00734    0.33418    0.78626   1.00
C5       -0.00129   0.38139    0.74522   1.00
H2       -0.03137   0.37214    0.73702   1.00
H2       0.01302    0.39277    0.71832   1.00
C5       -0.00262   0.41301    0.77710   1.00
H2       0.02732    0.42219    0.78562   1.00
H2       -0.01811   0.40212    0.80348   1.00
C5       -0.02445   0.44923    0.76193   1.00
C5       -0.01105   0.24298    0.84091   1.00
C5       -0.11070   0.25334    0.65782   1.00
H2       0.00912    0.22269    0.82559   1.00
H2       -0.03712   0.22622    0.85089   1.00
H2       -0.08300   0.26671    0.64714   1.00
H2       -0.12895   0.27732    0.67038   1.00
H2       -0.19030   0.26066    0.61892   1.00
H2       0.05753    0.21698    0.88253   1.00
H2       0.01237    0.20336    0.90680   1.00
C2       0.10395    0.25243    0.75113   1.00
C3       0.08403    0.21747    0.75996   1.00
O2       0.10326    0.18711    0.77812   1.00
C3       0.08174    0.28550    0.74027   1.00
H1       0.09615    0.31241    0.73236   1.00
C3a      0.04287    0.21658    0.75876   1.00
H1       0.02798    0.19025    0.76776   1.00
C3b      0.04078    0.28488    0.74032   1.00
C4       0.02100    0.25028    0.74968   1.00
O3       -0.02167   0.27456    0.81672   1.00
C5       0.11280    0.15788    0.75074   1.00
H2       0.08609    0.14601    0.73633   1.00
C5       0.13326    0.12529    0.77306   1.00
H2       0.13274    0.16948    0.72780   1.00
H2       0.11068    0.10724    0.78790   1.00
H2       0.15093    0.13918    0.79654   1.00
C5       0.15918    0.09967    0.74680   1.00
H2       0.14176    0.08856    0.72181   1.00
C5       0.17547    0.06466    0.76977   1.00
H2       0.18493    0.11631    0.73561   1.00
C5       0.00983    0.25974    0.87643   1.00
H2       -0.01215   0.27450    0.89529   1.00
H2       0.03048    0.28268    0.86622   1.00
C5       0.03200    0.22814    0.89941   1.00
C5       0.04775    0.24533    0.93781   1.00
H2       -0.19286   0.21762    0.56515   1.00
C5       -0.18912   0.27494    0.53649   1.00
H2       -0.14323   0.23159    0.54809   1.00
C5       -0.03337   0.47681    0.79625   1.00
H2       -0.00551   0.46505    0.73963   1.00
H2       -0.05293   0.43981    0.74759   1.00
C5       0.19503    0.03590    0.74134   1.00
H2       0.19789    0.07537    0.79187   1.00
H2       0.15063    0.04934    0.78571   1.00
H2       0.06398    0.27365    0.93143   1.00
H2       0.02239    0.25149    0.95842   1.00
C5       0.07583    0.21596    0.95696   1.00
H2       -0.20116   0.29914    0.55586   1.00
H2       -0.16571   0.28741    0.51643   1.00
H2       -0.21374   0.26212    0.51816   1.00
H2       -0.01820   0.46565    0.82367   1.00
H2       -0.02229   0.50734    0.78911   1.00
H2       -0.06621   0.47785    0.80140   1.00
H2       0.21111    0.05288    0.71770   1.00
H2       0.21664    0.01686    0.75796   1.00
H2       0.17181    0.01666    0.72732   1.00
H2       0.10693    0.22223    0.94698   1.00
H2       0.07402    0.21884    0.99004   1.00
H2       0.06734    0.18507    0.94804   1.00
C5       0.63218    0.23348    0.87570   1.00
H2       0.64745    0.20819    0.86240   1.00
H2       0.61090    0.22094    0.89669   1.00
C5       0.66194    0.25939    0.89717   1.00
C5       0.67123    0.24271    0.93784   1.00
H2       0.65015    0.28947    0.90050   1.00
O3       0.48000    0.31761    0.77109   1.00
C4       0.52100    0.24972    0.74968   1.00
C3c      0.54243    0.23868    0.78282   1.00
H1       0.52725    0.22983    0.80901   1.00
C3d      0.54135    0.26062    0.71567   1.00
C3       0.58354    0.23938    0.78295   1.00
O2       0.60248    0.22368    0.81469   1.00
C3       0.58227    0.26207    0.71594   1.00
H1       0.59657    0.27194    0.68962   1.00
C2       0.60439    0.25140    0.74933   1.00
C5       0.47879    0.34561    0.74089   1.00
H2       0.44838    0.35467    0.73373   1.00
H2       0.49266    0.33418    0.71374   1.00
C5       0.50129    0.38139    0.75478   1.00
H2       0.53137    0.37214    0.76298   1.00
H2       0.48698    0.39277    0.78168   1.00
C5       0.50262    0.41301    0.72290   1.00
H2       0.47268    0.42219    0.71438   1.00
H2       0.51811    0.40212    0.69652   1.00
C5       0.52445    0.44923    0.73807   1.00
C5       0.51105    0.24298    0.65909   1.00
C5       0.61070    0.25334    0.84218   1.00
H2       0.49088    0.22269    0.67441   1.00
H2       0.53712    0.22622    0.64911   1.00
H2       0.58300    0.26671    0.85286   1.00
H2       0.62895    0.27732    0.82962   1.00
H2       0.69030    0.26066    0.88108   1.00
H2       0.44247    0.21698    0.61747   1.00
H2       0.48763    0.20336    0.59320   1.00
C2       0.39605    0.25243    0.74887   1.00
C3       0.41597    0.21747    0.74004   1.00
O2       0.39674    0.18711    0.72188   1.00
C3       0.41826    0.28550    0.75973   1.00
H1       0.40385    0.31241    0.76764   1.00
C3a      0.45713    0.21658    0.74124   1.00
H1       0.47202    0.19025    0.73224   1.00
C3b      0.45922    0.28488    0.75968   1.00
C4       0.47900    0.25028    0.75032   1.00
O3       0.52167    0.27456    0.68328   1.00
C5       0.38720    0.15788    0.74926   1.00
H2       0.41391    0.14601    0.76367   1.00
C5       0.36674    0.12529    0.72694   1.00
H2       0.36726    0.16948    0.77220   1.00
H2       0.38932    0.10724    0.71210   1.00
H2       0.34907    0.13918    0.70346   1.00
C5       0.34082    0.09967    0.75320   1.00
H2       0.35824    0.08856    0.77819   1.00
C5       0.32453    0.06466    0.73023   1.00
H2       0.31507    0.11631    0.76439   1.00
C5       0.49017    0.25974    0.62357   1.00
H2       0.51215    0.27450    0.60471   1.00
H2       0.46952    0.28268    0.63378   1.00
C5       0.46800    0.22814    0.60059   1.00
C5       0.45225    0.24533    0.56219   1.00
H2       0.69286    0.21762    0.93485   1.00
C5       0.68912    0.27494    0.96351   1.00
H2       0.64323    0.23159    0.95191   1.00
C5       0.53337    0.47681    0.70375   1.00
H2       0.50551    0.46505    0.76037   1.00
H2       0.55293    0.43981    0.75241   1.00
C5       0.30497    0.03590    0.75866   1.00
H2       0.30211    0.07537    0.70813   1.00
H2       0.34937    0.04934    0.71429   1.00
H2       0.43602    0.27365    0.56857   1.00
H2       0.47761    0.25149    0.54158   1.00
C5       0.42417    0.21596    0.54304   1.00
H2       0.70116    0.29914    0.94414   1.00
H2       0.66571    0.28741    0.98357   1.00
H2       0.71374    0.26212    0.98184   1.00
H2       0.51820    0.46565    0.67633   1.00
H2       0.52229    0.50734    0.71089   1.00
H2       0.56621    0.47785    0.69860   1.00
H2       0.28889    0.05288    0.78230   1.00
H2       0.28336    0.01686    0.74204   1.00
H2       0.32819    0.01666    0.77268   1.00
H2       0.39307    0.22223    0.55302   1.00
H2       0.42598    0.21884    0.50996   1.00
H2       0.43266    0.18507    0.55196   1.00
C5       0.12430    -0.13218   0.73348   1.00
H2       0.13760    -0.14745   0.70819   1.00
H2       0.10331    -0.11090   0.72094   1.00
C5       0.10283    -0.16194   0.75939   1.00
C5       0.06216    -0.17123   0.74271   1.00
H2       0.09950    -0.15015   0.78947   1.00
O3       0.22891    0.02000    0.81761   1.00
C4       0.25032    -0.02100   0.74972   1.00
C3c      0.21718    -0.04243   0.73868   1.00
H1       0.19099    -0.02725   0.72983   1.00
C3d      0.28433    -0.04135   0.76062   1.00
C3       0.21705    -0.08354   0.73938   1.00
O2       0.18531    -0.10248   0.72368   1.00
C3       0.28406    -0.08227   0.76207   1.00
H1       0.31038    -0.09657   0.77194   1.00
C2       0.25067    -0.10439   0.75140   1.00
C5       0.25911    0.02121    0.84561   1.00
H2       0.26627    0.05162    0.85467   1.00
H2       0.28626    0.00734    0.83418   1.00
C5       0.24522    -0.00129   0.88139   1.00
H2       0.23702    -0.03137   0.87214   1.00
H2       0.21832    0.01302    0.89277   1.00
C5       0.27710    -0.00262   0.91301   1.00
H2       0.28562    0.02732    0.92219   1.00
H2       0.30348    -0.01811   0.90212   1.00
C5       0.26193    -0.02445   0.94923   1.00
C5       0.34091    -0.01105   0.74298   1.00
C5       0.15782    -0.11070   0.75334   1.00
H2       0.32559    0.00912    0.72269   1.00
H2       0.35089    -0.03712   0.72622   1.00
H2       0.14714    -0.08300   0.76671   1.00
H2       0.17038    -0.12895   0.77732   1.00
H2       0.11892    -0.19030   0.76066   1.00
H2       0.38253    0.05753    0.71698   1.00
H2       0.40680    0.01237    0.70336   1.00
C2       0.25113    0.10395    0.75243   1.00
C3       0.25996    0.08403    0.71747   1.00
O2       0.27812    0.10326    0.68711   1.00
C3       0.24027    0.08174    0.78550   1.00
H1       0.23236    0.09615    0.81241   1.00
C3a      0.25876    0.04287    0.71658   1.00
H1       0.26776    0.02798    0.69025   1.00
C3b      0.24032    0.04078    0.78488   1.00
C4       0.24968    0.02100    0.75028   1.00
O3       0.31672    -0.02167   0.77456   1.00
C5       0.25074    0.11280    0.65788   1.00
H2       0.23633    0.08609    0.64601   1.00
C5       0.27306    0.13326    0.62529   1.00
H2       0.22780    0.13274    0.66948   1.00
H2       0.28790    0.11068    0.60724   1.00
H2       0.29654    0.15093    0.63918   1.00
C5       0.24680    0.15918    0.59967   1.00
H2       0.22181    0.14176    0.58856   1.00
C5       0.26977    0.17547    0.56466   1.00
H2       0.23561    0.18493    0.61631   1.00
C5       0.37643    0.00983    0.75974   1.00
H2       0.39529    -0.01215   0.77450   1.00
H2       0.36622    0.03048    0.78268   1.00
C5       0.39941    0.03200    0.72814   1.00
C5       0.43781    0.04775    0.74533   1.00
H2       0.06515    -0.19286   0.71762   1.00
C5       0.03649    -0.18912   0.77494   1.00
H2       0.04809    -0.14323   0.73159   1.00
C5       0.29625    -0.03337   0.97681   1.00
H2       0.23963    -0.00551   0.96505   1.00
H2       0.24759    -0.05293   0.93981   1.00
C5       0.24134    0.19503    0.53590   1.00
H2       0.29187    0.19789    0.57537   1.00
H2       0.28571    0.15063    0.54934   1.00
H2       0.43143    0.06398    0.77365   1.00
H2       0.45842    0.02239    0.75149   1.00
C5       0.45696    0.07583    0.71596   1.00
H2       0.05586    -0.20116   0.79914   1.00
H2       0.01643    -0.16571   0.78741   1.00
H2       0.01816    -0.21374   0.76212   1.00
H2       0.32367    -0.01820   0.96565   1.00
H2       0.28911    -0.02229   1.00734   1.00
H2       0.30140    -0.06621   0.97785   1.00
H2       0.21770    0.21111    0.55288   1.00
H2       0.25796    0.21664    0.51686   1.00
H2       0.22732    0.17181    0.51666   1.00
H2       0.44698    0.10693    0.72223   1.00
H2       0.49004    0.07402    0.71884   1.00
H2       0.44804    0.06734    0.68507   1.00
C5       0.23348    0.12430    0.36782   1.00
H2       0.20819    0.13760    0.35255   1.00
H2       0.22094    0.10331    0.38910   1.00
C5       0.25939    0.10283    0.33806   1.00
C5       0.24271    0.06216    0.32877   1.00
H2       0.28947    0.09950    0.34985   1.00
O3       0.31761    0.22891    0.52000   1.00
C4       0.24972    0.25032    0.47900   1.00
C3c      0.23868    0.21718    0.45757   1.00
H1       0.22983    0.19099    0.47275   1.00
C3d      0.26062    0.28433    0.45865   1.00
C3       0.23938    0.21705    0.41646   1.00
O2       0.22368    0.18531    0.39752   1.00
C3       0.26207    0.28406    0.41773   1.00
H1       0.27194    0.31038    0.40343   1.00
C2       0.25140    0.25067    0.39561   1.00
C5       0.34561    0.25911    0.52121   1.00
H2       0.35467    0.26627    0.55162   1.00
H2       0.33418    0.28626    0.50734   1.00
C5       0.38139    0.24522    0.49871   1.00
H2       0.37214    0.23702    0.46863   1.00
H2       0.39277    0.21832    0.51302   1.00
C5       0.41301    0.27710    0.49738   1.00
H2       0.42219    0.28562    0.52732   1.00
H2       0.40212    0.30348    0.48189   1.00
C5       0.44923    0.26193    0.47555   1.00
C5       0.24298    0.34091    0.48895   1.00
C5       0.25334    0.15782    0.38930   1.00
H2       0.22269    0.32559    0.50912   1.00
H2       0.22622    0.35089    0.46288   1.00
H2       0.26671    0.14714    0.41700   1.00
H2       0.27732    0.17038    0.37105   1.00
H2       0.26066    0.11892    0.30970   1.00
H2       0.21698    0.38253    0.55753   1.00
H2       0.20336    0.40680    0.51237   1.00
C2       0.25243    0.25113    0.60395   1.00
C3       0.21747    0.25996    0.58403   1.00
O2       0.18711    0.27812    0.60326   1.00
C3       0.28550    0.24027    0.58174   1.00
H1       0.31241    0.23236    0.59615   1.00
C3a      0.21658    0.25876    0.54287   1.00
H1       0.19025    0.26776    0.52798   1.00
C3b      0.28488    0.24032    0.54078   1.00
C4       0.25028    0.24968    0.52100   1.00
O3       0.27456    0.31672    0.47833   1.00
C5       0.15788    0.25074    0.61280   1.00
H2       0.14601    0.23633    0.58609   1.00
C5       0.12529    0.27306    0.63326   1.00
H2       0.16948    0.22780    0.63274   1.00
H2       0.10724    0.28790    0.61068   1.00
H2       0.13918    0.29654    0.65093   1.00
C5       0.09967    0.24680    0.65918   1.00
H2       0.08856    0.22181    0.64176   1.00
C5       0.06466    0.26977    0.67547   1.00
H2       0.11631    0.23561    0.68493   1.00
C5       0.25974    0.37643    0.50983   1.00
H2       0.27450    0.39529    0.48785   1.00
H2       0.28268    0.36622    0.53048   1.00
C5       0.22814    0.39941    0.53200   1.00
C5       0.24533    0.43781    0.54775   1.00
H2       0.21762    0.06515    0.30714   1.00
C5       0.27494    0.03649    0.31088   1.00
H2       0.23159    0.04809    0.35677   1.00
C5       0.47681    0.29625    0.46663   1.00
H2       0.46505    0.23963    0.49449   1.00
H2       0.43981    0.24759    0.44707   1.00
C5       0.03590    0.24134    0.69503   1.00
H2       0.07537    0.29187    0.69789   1.00
H2       0.04934    0.28571    0.65063   1.00
H2       0.27365    0.43143    0.56398   1.00
H2       0.25149    0.45842    0.52239   1.00
C5       0.21596    0.45696    0.57583   1.00
H2       0.29914    0.05586    0.29884   1.00
H2       0.28741    0.01643    0.33429   1.00
H2       0.26212    0.01816    0.28626   1.00
H2       0.46565    0.32367    0.48180   1.00
H2       0.50734    0.28911    0.47771   1.00
H2       0.47785    0.30140    0.43379   1.00
H2       0.05288    0.21770    0.71111   1.00
H2       0.01686    0.25796    0.71664   1.00
H2       0.01666    0.22732    0.67181   1.00
H2       0.22223    0.44698    0.60693   1.00
H2       0.21884    0.49004    0.57402   1.00
H2       0.18507    0.44804    0.56734   1.00
C5       0.23348    0.87570    0.63218   1.00
H2       0.20819    0.86240    0.64745   1.00
H2       0.22094    0.89669    0.61090   1.00
C5       0.25939    0.89717    0.66194   1.00
C5       0.24271    0.93784    0.67123   1.00
H2       0.28947    0.90050    0.65015   1.00
O3       0.31761    0.77109    0.48000   1.00
C4       0.24972    0.74968    0.52100   1.00
C3c      0.23868    0.78282    0.54243   1.00
H1       0.22983    0.80901    0.52725   1.00
C3d      0.26062    0.71567    0.54135   1.00
C3       0.23938    0.78295    0.58354   1.00
O2       0.22368    0.81469    0.60248   1.00
C3       0.26207    0.71594    0.58227   1.00
H1       0.27194    0.68962    0.59657   1.00
C2       0.25140    0.74933    0.60439   1.00
C5       0.34561    0.74089    0.47879   1.00
H2       0.35467    0.73373    0.44838   1.00
H2       0.33418    0.71374    0.49266   1.00
C5       0.38139    0.75478    0.50129   1.00
H2       0.37214    0.76298    0.53137   1.00
H2       0.39277    0.78168    0.48698   1.00
C5       0.41301    0.72290    0.50262   1.00
H2       0.42219    0.71438    0.47268   1.00
H2       0.40212    0.69652    0.51811   1.00
C5       0.44923    0.73807    0.52445   1.00
C5       0.24298    0.65909    0.51105   1.00
C5       0.25334    0.84218    0.61070   1.00
H2       0.22269    0.67441    0.49088   1.00
H2       0.22622    0.64911    0.53712   1.00
H2       0.26671    0.85286    0.58300   1.00
H2       0.27732    0.82962    0.62895   1.00
H2       0.26066    0.88108    0.69030   1.00
H2       0.21698    0.61747    0.44247   1.00
H2       0.20336    0.59320    0.48763   1.00
C2       0.25243    0.74887    0.39605   1.00
C3       0.21747    0.74004    0.41597   1.00
O2       0.18711    0.72188    0.39674   1.00
C3       0.28550    0.75973    0.41826   1.00
H1       0.31241    0.76764    0.40385   1.00
C3a      0.21658    0.74124    0.45713   1.00
H1       0.19025    0.73224    0.47202   1.00
C3b      0.28488    0.75968    0.45922   1.00
C4       0.25028    0.75032    0.47900   1.00
O3       0.27456    0.68328    0.52167   1.00
C5       0.15788    0.74926    0.38720   1.00
H2       0.14601    0.76367    0.41391   1.00
C5       0.12529    0.72694    0.36674   1.00
H2       0.16948    0.77220    0.36726   1.00
H2       0.10724    0.71210    0.38932   1.00
H2       0.13918    0.70346    0.34907   1.00
C5       0.09967    0.75320    0.34082   1.00
H2       0.08856    0.77819    0.35824   1.00
C5       0.06466    0.73023    0.32453   1.00
H2       0.11631    0.76439    0.31507   1.00
C5       0.25974    0.62357    0.49017   1.00
H2       0.27450    0.60471    0.51215   1.00
H2       0.28268    0.63378    0.46952   1.00
C5       0.22814    0.60059    0.46800   1.00
C5       0.24533    0.56219    0.45225   1.00
H2       0.21762    0.93485    0.69286   1.00
C5       0.27494    0.96351    0.68912   1.00
H2       0.23159    0.95191    0.64323   1.00
C5       0.47681    0.70375    0.53337   1.00
H2       0.46505    0.76037    0.50551   1.00
H2       0.43981    0.75241    0.55293   1.00
C5       0.03590    0.75866    0.30497   1.00
H2       0.07537    0.70813    0.30211   1.00
H2       0.04934    0.71429    0.34937   1.00
H2       0.27365    0.56857    0.43602   1.00
H2       0.25149    0.54158    0.47761   1.00
C5       0.21596    0.54304    0.42417   1.00
H2       0.29914    0.94414    0.70116   1.00
H2       0.28741    0.98357    0.66571   1.00
H2       0.26212    0.98184    0.71374   1.00
H2       0.46565    0.67633    0.51820   1.00
H2       0.50734    0.71089    0.52229   1.00
H2       0.47785    0.69860    0.56621   1.00
H2       0.05288    0.78230    0.28889   1.00
H2       0.01686    0.74204    0.28336   1.00
H2       0.01666    0.77268    0.32819   1.00
H2       0.22223    0.55302    0.39307   1.00
H2       0.21884    0.50996    0.42598   1.00
H2       0.18507    0.55196    0.43266   1.00
C5       0.37570    1.13218    0.23348   1.00
H2       0.36240    1.14745    0.20819   1.00
H2       0.39669    1.11090    0.22094   1.00
C5       0.39717    1.16194    0.25939   1.00
C5       0.43784    1.17123    0.24271   1.00
H2       0.40050    1.15015    0.28947   1.00
O3       0.27109    0.98000    0.31761   1.00
C4       0.24968    1.02100    0.24972   1.00
C3c      0.28282    1.04243    0.23868   1.00
H1       0.30901    1.02725    0.22983   1.00
C3d      0.21567    1.04135    0.26062   1.00
C3       0.28295    1.08354    0.23938   1.00
O2       0.31469    1.10248    0.22368   1.00
C3       0.21594    1.08227    0.26207   1.00
H1       0.18962    1.09657    0.27194   1.00
C2       0.24933    1.10439    0.25140   1.00
C5       0.24089    0.97879    0.34561   1.00
H2       0.23373    0.94838    0.35467   1.00
H2       0.21374    0.99266    0.33418   1.00
C5       0.25478    1.00129    0.38139   1.00
H2       0.26298    1.03137    0.37214   1.00
H2       0.28168    0.98698    0.39277   1.00
C5       0.22290    1.00262    0.41301   1.00
H2       0.21438    0.97268    0.42219   1.00
H2       0.19652    1.01811    0.40212   1.00
C5       0.23807    1.02445    0.44923   1.00
C5       0.15909    1.01105    0.24298   1.00
C5       0.34218    1.11070    0.25334   1.00
H2       0.17441    0.99088    0.22269   1.00
H2       0.14911    1.03712    0.22622   1.00
H2       0.35286    1.08300    0.26671   1.00
H2       0.32962    1.12895    0.27732   1.00
H2       0.38108    1.19030    0.26066   1.00
H2       0.11747    0.94247    0.21698   1.00
H2       0.09320    0.98763    0.20336   1.00
C2       0.24887    0.89605    0.25243   1.00
C3       0.24004    0.91597    0.21747   1.00
O2       0.22188    0.89674    0.18711   1.00
C3       0.25973    0.91826    0.28550   1.00
H1       0.26764    0.90385    0.31241   1.00
C3a      0.24124    0.95713    0.21658   1.00
H1       0.23224    0.97202    0.19025   1.00
C3b      0.25968    0.95922    0.28488   1.00
C4       0.25032    0.97900    0.25028   1.00
O3       0.18328    1.02167    0.27456   1.00
C5       0.24926    0.88720    0.15788   1.00
H2       0.26367    0.91391    0.14601   1.00
C5       0.22694    0.86674    0.12529   1.00
H2       0.27220    0.86726    0.16948   1.00
H2       0.21210    0.88932    0.10724   1.00
H2       0.20346    0.84907    0.13918   1.00
C5       0.25320    0.84082    0.09967   1.00
H2       0.27819    0.85824    0.08856   1.00
C5       0.23023    0.82453    0.06466   1.00
H2       0.26439    0.81507    0.11631   1.00
C5       0.12357    0.99017    0.25974   1.00
H2       0.10471    1.01215    0.27450   1.00
H2       0.13378    0.96952    0.28268   1.00
C5       0.10059    0.96800    0.22814   1.00
C5       0.06219    0.95225    0.24533   1.00
H2       0.43485    1.19286    0.21762   1.00
C5       0.46351    1.18912    0.27494   1.00
H2       0.45191    1.14323    0.23159   1.00
C5       0.20375    1.03337    0.47681   1.00
H2       0.26037    1.00551    0.46505   1.00
H2       0.25241    1.05293    0.43981   1.00
C5       0.25866    0.80497    0.03590   1.00
H2       0.20813    0.80211    0.07537   1.00
H2       0.21429    0.84937    0.04934   1.00
H2       0.06857    0.93602    0.27365   1.00
H2       0.04158    0.97761    0.25149   1.00
C5       0.04304    0.92417    0.21596   1.00
H2       0.44414    1.20116    0.29914   1.00
H2       0.48357    1.16571    0.28741   1.00
H2       0.48184    1.21374    0.26212   1.00
H2       0.17633    1.01820    0.46565   1.00
H2       0.21089    1.02229    0.50734   1.00
H2       0.19860    1.06621    0.47785   1.00
H2       0.28230    0.78889    0.05288   1.00
H2       0.24204    0.78336    0.01686   1.00
H2       0.27268    0.82819    0.01666   1.00
H2       0.05302    0.89307    0.22223   1.00
H2       0.00996    0.92598    0.21884   1.00
H2       0.05196    0.93266    0.18507   1.00
C5       -0.13218   0.73348    0.12430   1.00
H2       -0.14745   0.70819    0.13760   1.00
H2       -0.11090   0.72094    0.10331   1.00
C5       -0.16194   0.75939    0.10283   1.00
C5       -0.17123   0.74271    0.06216   1.00
H2       -0.15015   0.78947    0.09950   1.00
O3       0.02000    0.81761    0.22891   1.00
C4       -0.02100   0.74972    0.25032   1.00
C3c      -0.04243   0.73868    0.21718   1.00
H1       -0.02725   0.72983    0.19099   1.00
C3d      -0.04135   0.76062    0.28433   1.00
C3       -0.08354   0.73938    0.21705   1.00
O2       -0.10248   0.72368    0.18531   1.00
C3       -0.08227   0.76207    0.28406   1.00
H1       -0.09657   0.77194    0.31038   1.00
C2       -0.10439   0.75140    0.25067   1.00
C5       0.02121    0.84561    0.25911   1.00
H2       0.05162    0.85467    0.26627   1.00
H2       0.00734    0.83418    0.28626   1.00
C5       -0.00129   0.88139    0.24522   1.00
H2       -0.03137   0.87214    0.23702   1.00
H2       0.01302    0.89277    0.21832   1.00
C5       -0.00262   0.91301    0.27710   1.00
H2       0.02732    0.92219    0.28562   1.00
H2       -0.01811   0.90212    0.30348   1.00
C5       -0.02445   0.94923    0.26193   1.00
C5       -0.01105   0.74298    0.34091   1.00
C5       -0.11070   0.75334    0.15782   1.00
H2       0.00912    0.72269    0.32559   1.00
H2       -0.03712   0.72622    0.35089   1.00
H2       -0.08300   0.76671    0.14714   1.00
H2       -0.12895   0.77732    0.17038   1.00
H2       -0.19030   0.76066    0.11892   1.00
H2       0.05753    0.71698    0.38253   1.00
H2       0.01237    0.70336    0.40680   1.00
C2       0.10395    0.75243    0.25113   1.00
C3       0.08403    0.71747    0.25996   1.00
O2       0.10326    0.68711    0.27812   1.00
C3       0.08174    0.78550    0.24027   1.00
H1       0.09615    0.81241    0.23236   1.00
C3a      0.04287    0.71658    0.25876   1.00
H1       0.02798    0.69025    0.26776   1.00
C3b      0.04078    0.78488    0.24032   1.00
C4       0.02100    0.75028    0.24968   1.00
O3       -0.02167   0.77456    0.31672   1.00
C5       0.11280    0.65788    0.25074   1.00
H2       0.08609    0.64601    0.23633   1.00
C5       0.13326    0.62529    0.27306   1.00
H2       0.13274    0.66948    0.22780   1.00
H2       0.11068    0.60724    0.28790   1.00
H2       0.15093    0.63918    0.29654   1.00
C5       0.15918    0.59967    0.24680   1.00
H2       0.14176    0.58856    0.22181   1.00
C5       0.17547    0.56466    0.26977   1.00
H2       0.18493    0.61631    0.23561   1.00
C5       0.00983    0.75974    0.37643   1.00
H2       -0.01215   0.77450    0.39529   1.00
H2       0.03048    0.78268    0.36622   1.00
C5       0.03200    0.72814    0.39941   1.00
C5       0.04775    0.74533    0.43781   1.00
H2       -0.19286   0.71762    0.06515   1.00
C5       -0.18912   0.77494    0.03649   1.00
H2       -0.14323   0.73159    0.04809   1.00
C5       -0.03337   0.97681    0.29625   1.00
H2       -0.00551   0.96505    0.23963   1.00
H2       -0.05293   0.93981    0.24759   1.00
C5       0.19503    0.53590    0.24134   1.00
H2       0.19789    0.57537    0.29187   1.00
H2       0.15063    0.54934    0.28571   1.00
H2       0.06398    0.77365    0.43143   1.00
H2       0.02239    0.75149    0.45842   1.00
C5       0.07583    0.71596    0.45696   1.00
H2       -0.20116   0.79914    0.05586   1.00
H2       -0.16571   0.78741    0.01643   1.00
H2       -0.21374   0.76212    0.01816   1.00
H2       -0.01820   0.96565    0.32367   1.00
H2       -0.02229   1.00734    0.28911   1.00
H2       -0.06621   0.97785    0.30140   1.00
H2       0.21111    0.55288    0.21770   1.00
H2       0.21664    0.51686    0.25796   1.00
H2       0.17181    0.51666    0.22732   1.00
H2       0.10693    0.72223    0.44698   1.00
H2       0.07402    0.71884    0.49004   1.00
H2       0.06734    0.68507    0.44804   1.00
C5       0.63218    0.73348    0.37570   1.00
H2       0.64745    0.70819    0.36240   1.00
H2       0.61090    0.72094    0.39669   1.00
C5       0.66194    0.75939    0.39717   1.00
C5       0.67123    0.74271    0.43784   1.00
H2       0.65015    0.78947    0.40050   1.00
O3       0.48000    0.81761    0.27109   1.00
C4       0.52100    0.74972    0.24968   1.00
C3c      0.54243    0.73868    0.28282   1.00
H1       0.52725    0.72983    0.30901   1.00
C3d      0.54135    0.76062    0.21567   1.00
C3       0.58354    0.73938    0.28295   1.00
O2       0.60248    0.72368    0.31469   1.00
C3       0.58227    0.76207    0.21594   1.00
H1       0.59657    0.77194    0.18962   1.00
C2       0.60439    0.75140    0.24933   1.00
C5       0.47879    0.84561    0.24089   1.00
H2       0.44838    0.85467    0.23373   1.00
H2       0.49266    0.83418    0.21374   1.00
C5       0.50129    0.88139    0.25478   1.00
H2       0.53137    0.87214    0.26298   1.00
H2       0.48698    0.89277    0.28168   1.00
C5       0.50262    0.91301    0.22290   1.00
H2       0.47268    0.92219    0.21438   1.00
H2       0.51811    0.90212    0.19652   1.00
C5       0.52445    0.94923    0.23807   1.00
C5       0.51105    0.74298    0.15909   1.00
C5       0.61070    0.75334    0.34218   1.00
H2       0.49088    0.72269    0.17441   1.00
H2       0.53712    0.72622    0.14911   1.00
H2       0.58300    0.76671    0.35286   1.00
H2       0.62895    0.77732    0.32962   1.00
H2       0.69030    0.76066    0.38108   1.00
H2       0.44247    0.71698    0.11747   1.00
H2       0.48763    0.70336    0.09320   1.00
C2       0.39605    0.75243    0.24887   1.00
C3       0.41597    0.71747    0.24004   1.00
O2       0.39674    0.68711    0.22188   1.00
C3       0.41826    0.78550    0.25973   1.00
H1       0.40385    0.81241    0.26764   1.00
C3a      0.45713    0.71658    0.24124   1.00
H1       0.47202    0.69025    0.23224   1.00
C3b      0.45922    0.78488    0.25968   1.00
C4       0.47900    0.75028    0.25032   1.00
O3       0.52167    0.77456    0.18328   1.00
C5       0.38720    0.65788    0.24926   1.00
H2       0.41391    0.64601    0.26367   1.00
C5       0.36674    0.62529    0.22694   1.00
H2       0.36726    0.66948    0.27220   1.00
H2       0.38932    0.60724    0.21210   1.00
H2       0.34907    0.63918    0.20346   1.00
C5       0.34082    0.59967    0.25320   1.00
H2       0.35824    0.58856    0.27819   1.00
C5       0.32453    0.56466    0.23023   1.00
H2       0.31507    0.61631    0.26439   1.00
C5       0.49017    0.75974    0.12357   1.00
H2       0.51215    0.77450    0.10471   1.00
H2       0.46952    0.78268    0.13378   1.00
C5       0.46800    0.72814    0.10059   1.00
C5       0.45225    0.74533    0.06219   1.00
H2       0.69286    0.71762    0.43485   1.00
C5       0.68912    0.77494    0.46351   1.00
H2       0.64323    0.73159    0.45191   1.00
C5       0.53337    0.97681    0.20375   1.00
H2       0.50551    0.96505    0.26037   1.00
H2       0.55293    0.93981    0.25241   1.00
C5       0.30497    0.53590    0.25866   1.00
H2       0.30211    0.57537    0.20813   1.00
H2       0.34937    0.54934    0.21429   1.00
H2       0.43602    0.77365    0.06857   1.00
H2       0.47761    0.75149    0.04158   1.00
C5       0.42417    0.71596    0.04304   1.00
H2       0.70116    0.79914    0.44414   1.00
H2       0.66571    0.78741    0.48357   1.00
H2       0.71374    0.76212    0.48184   1.00
H2       0.51820    0.96565    0.17633   1.00
H2       0.52229    1.00734    0.21089   1.00
H2       0.56621    0.97785    0.19860   1.00
H2       0.28889    0.55288    0.28230   1.00
H2       0.28336    0.51686    0.24204   1.00
H2       0.32819    0.51666    0.27268   1.00
H2       0.39307    0.72223    0.05302   1.00
H2       0.42598    0.71884    0.00996   1.00
H2       0.43266    0.68507    0.05196   1.00
C5       0.12430    0.36782    0.23348   1.00
H2       0.13760    0.35255    0.20819   1.00
H2       0.10331    0.38910    0.22094   1.00
C5       0.10283    0.33806    0.25939   1.00
C5       0.06216    0.32877    0.24271   1.00
H2       0.09950    0.34985    0.28947   1.00
O3       0.22891    0.52000    0.31761   1.00
C4       0.25032    0.47900    0.24972   1.00
C3c      0.21718    0.45757    0.23868   1.00
H1       0.19099    0.47275    0.22983   1.00
C3d      0.28433    0.45865    0.26062   1.00
C3       0.21705    0.41646    0.23938   1.00
O2       0.18531    0.39752    0.22368   1.00
C3       0.28406    0.41773    0.26207   1.00
H1       0.31038    0.40343    0.27194   1.00
C2       0.25067    0.39561    0.25140   1.00
C5       0.25911    0.52121    0.34561   1.00
H2       0.26627    0.55162    0.35467   1.00
H2       0.28626    0.50734    0.33418   1.00
C5       0.24522    0.49871    0.38139   1.00
H2       0.23702    0.46863    0.37214   1.00
H2       0.21832    0.51302    0.39277   1.00
C5       0.27710    0.49738    0.41301   1.00
H2       0.28562    0.52732    0.42219   1.00
H2       0.30348    0.48189    0.40212   1.00
C5       0.26193    0.47555    0.44923   1.00
C5       0.34091    0.48895    0.24298   1.00
C5       0.15782    0.38930    0.25334   1.00
H2       0.32559    0.50912    0.22269   1.00
H2       0.35089    0.46288    0.22622   1.00
H2       0.14714    0.41700    0.26671   1.00
H2       0.17038    0.37105    0.27732   1.00
H2       0.11892    0.30970    0.26066   1.00
H2       0.38253    0.55753    0.21698   1.00
H2       0.40680    0.51237    0.20336   1.00
C2       0.25113    0.60395    0.25243   1.00
C3       0.25996    0.58403    0.21747   1.00
O2       0.27812    0.60326    0.18711   1.00
C3       0.24027    0.58174    0.28550   1.00
H1       0.23236    0.59615    0.31241   1.00
C3a      0.25876    0.54287    0.21658   1.00
H1       0.26776    0.52798    0.19025   1.00
C3b      0.24032    0.54078    0.28488   1.00
C4       0.24968    0.52100    0.25028   1.00
O3       0.31672    0.47833    0.27456   1.00
C5       0.25074    0.61280    0.15788   1.00
H2       0.23633    0.58609    0.14601   1.00
C5       0.27306    0.63326    0.12529   1.00
H2       0.22780    0.63274    0.16948   1.00
H2       0.28790    0.61068    0.10724   1.00
H2       0.29654    0.65093    0.13918   1.00
C5       0.24680    0.65918    0.09967   1.00
H2       0.22181    0.64176    0.08856   1.00
C5       0.26977    0.67547    0.06466   1.00
H2       0.23561    0.68493    0.11631   1.00
C5       0.37643    0.50983    0.25974   1.00
H2       0.39529    0.48785    0.27450   1.00
H2       0.36622    0.53048    0.28268   1.00
C5       0.39941    0.53200    0.22814   1.00
C5       0.43781    0.54775    0.24533   1.00
H2       0.06515    0.30714    0.21762   1.00
C5       0.03649    0.31088    0.27494   1.00
H2       0.04809    0.35677    0.23159   1.00
C5       0.29625    0.46663    0.47681   1.00
H2       0.23963    0.49449    0.46505   1.00
H2       0.24759    0.44707    0.43981   1.00
C5       0.24134    0.69503    0.03590   1.00
H2       0.29187    0.69789    0.07537   1.00
H2       0.28571    0.65063    0.04934   1.00
H2       0.43143    0.56398    0.27365   1.00
H2       0.45842    0.52239    0.25149   1.00
C5       0.45696    0.57583    0.21596   1.00
H2       0.05586    0.29884    0.29914   1.00
H2       0.01643    0.33429    0.28741   1.00
H2       0.01816    0.28626    0.26212   1.00
H2       0.32367    0.48180    0.46565   1.00
H2       0.28911    0.47771    0.50734   1.00
H2       0.30140    0.43379    0.47785   1.00
H2       0.21770    0.71111    0.05288   1.00
H2       0.25796    0.71664    0.01686   1.00
H2       0.22732    0.67181    0.01666   1.00
H2       0.44698    0.60693    0.22223   1.00
H2       0.49004    0.57402    0.21884   1.00
H2       0.44804    0.56734    0.18507   1.00
C5       0.23348    0.62430    -0.13218   1.00
H2       0.20819    0.63760    -0.14745   1.00
H2       0.22094    0.60331    -0.11090   1.00
C5       0.25939    0.60283    -0.16194   1.00
C5       0.24271    0.56216    -0.17123   1.00
H2       0.28947    0.59950    -0.15015   1.00
O3       0.31761    0.72891    0.02000   1.00
C4       0.24972    0.75032    -0.02100   1.00
C3c      0.23868    0.71718    -0.04243   1.00
H1       0.22983    0.69099    -0.02725   1.00
C3d      0.26062    0.78433    -0.04135   1.00
C3       0.23938    0.71705    -0.08354   1.00
O2       0.22368    0.68531    -0.10248   1.00
C3       0.26207    0.78406    -0.08227   1.00
H1       0.27194    0.81038    -0.09657   1.00
C2       0.25140    0.75067    -0.10439   1.00
C5       0.34561    0.75911    0.02121   1.00
H2       0.35467    0.76627    0.05162   1.00
H2       0.33418    0.78626    0.00734   1.00
C5       0.38139    0.74522    -0.00129   1.00
H2       0.37214    0.73702    -0.03137   1.00
H2       0.39277    0.71832    0.01302   1.00
C5       0.41301    0.77710    -0.00262   1.00
H2       0.42219    0.78562    0.02732   1.00
H2       0.40212    0.80348    -0.01811   1.00
C5       0.44923    0.76193    -0.02445   1.00
C5       0.24298    0.84091    -0.01105   1.00
C5       0.25334    0.65782    -0.11070   1.00
H2       0.22269    0.82559    0.00912   1.00
H2       0.22622    0.85089    -0.03712   1.00
H2       0.26671    0.64714    -0.08300   1.00
H2       0.27732    0.67038    -0.12895   1.00
H2       0.26066    0.61892    -0.19030   1.00
H2       0.21698    0.88253    0.05753   1.00
H2       0.20336    0.90680    0.01237   1.00
C2       0.25243    0.75113    0.10395   1.00
C3       0.21747    0.75996    0.08403   1.00
O2       0.18711    0.77812    0.10326   1.00
C3       0.28550    0.74027    0.08174   1.00
H1       0.31241    0.73236    0.09615   1.00
C3a      0.21658    0.75876    0.04287   1.00
H1       0.19025    0.76776    0.02798   1.00
C3b      0.28488    0.74032    0.04078   1.00
C4       0.25028    0.74968    0.02100   1.00
O3       0.27456    0.81672    -0.02167   1.00
C5       0.15788    0.75074    0.11280   1.00
H2       0.14601    0.73633    0.08609   1.00
C5       0.12529    0.77306    0.13326   1.00
H2       0.16948    0.72780    0.13274   1.00
H2       0.10724    0.78790    0.11068   1.00
H2       0.13918    0.79654    0.15093   1.00
C5       0.09967    0.74680    0.15918   1.00
H2       0.08856    0.72181    0.14176   1.00
C5       0.06466    0.76977    0.17547   1.00
H2       0.11631    0.73561    0.18493   1.00
C5       0.25974    0.87643    0.00983   1.00
H2       0.27450    0.89529    -0.01215   1.00
H2       0.28268    0.86622    0.03048   1.00
C5       0.22814    0.89941    0.03200   1.00
C5       0.24533    0.93781    0.04775   1.00
H2       0.21762    0.56515    -0.19286   1.00
C5       0.27494    0.53649    -0.18912   1.00
H2       0.23159    0.54809    -0.14323   1.00
C5       0.47681    0.79625    -0.03337   1.00
H2       0.46505    0.73963    -0.00551   1.00
H2       0.43981    0.74759    -0.05293   1.00
C5       0.03590    0.74134    0.19503   1.00
H2       0.07537    0.79187    0.19789   1.00
H2       0.04934    0.78571    0.15063   1.00
H2       0.27365    0.93143    0.06398   1.00
H2       0.25149    0.95842    0.02239   1.00
C5       0.21596    0.95696    0.07583   1.00
H2       0.29914    0.55586    -0.20116   1.00
H2       0.28741    0.51643    -0.16571   1.00
H2       0.26212    0.51816    -0.21374   1.00
H2       0.46565    0.82367    -0.01820   1.00
H2       0.50734    0.78911    -0.02229   1.00
H2       0.47785    0.80140    -0.06621   1.00
H2       0.05288    0.71770    0.21111   1.00
H2       0.01686    0.75796    0.21664   1.00
H2       0.01666    0.72732    0.17181   1.00
H2       0.22223    0.94698    0.10693   1.00
H2       0.21884    0.99004    0.07402   1.00
H2       0.18507    0.94804    0.06734   1.00
C5       0.73348    0.37570    0.63218   1.00
H2       0.70819    0.36240    0.64745   1.00
H2       0.72094    0.39669    0.61090   1.00
C5       0.75939    0.39717    0.66194   1.00
C5       0.74271    0.43784    0.67123   1.00
H2       0.78947    0.40050    0.65015   1.00
O3       0.81761    0.27109    0.48000   1.00
C4       0.74972    0.24968    0.52100   1.00
C3c      0.73868    0.28282    0.54243   1.00
H1       0.72983    0.30901    0.52725   1.00
C3d      0.76062    0.21567    0.54135   1.00
C3       0.73938    0.28295    0.58354   1.00
O2       0.72368    0.31469    0.60248   1.00
C3       0.76207    0.21594    0.58227   1.00
H1       0.77194    0.18962    0.59657   1.00
C2       0.75140    0.24933    0.60439   1.00
C5       0.84561    0.24089    0.47879   1.00
H2       0.85467    0.23373    0.44838   1.00
H2       0.83418    0.21374    0.49266   1.00
C5       0.88139    0.25478    0.50129   1.00
H2       0.87214    0.26298    0.53137   1.00
H2       0.89277    0.28168    0.48698   1.00
C5       0.91301    0.22290    0.50262   1.00
H2       0.92219    0.21438    0.47268   1.00
H2       0.90212    0.19652    0.51811   1.00
C5       0.94923    0.23807    0.52445   1.00
C5       0.74298    0.15909    0.51105   1.00
C5       0.75334    0.34218    0.61070   1.00
H2       0.72269    0.17441    0.49088   1.00
H2       0.72622    0.14911    0.53712   1.00
H2       0.76671    0.35286    0.58300   1.00
H2       0.77732    0.32962    0.62895   1.00
H2       0.76066    0.38108    0.69030   1.00
H2       0.71698    0.11747    0.44247   1.00
H2       0.70336    0.09320    0.48763   1.00
C2       0.75243    0.24887    0.39605   1.00
C3       0.71747    0.24004    0.41597   1.00
O2       0.68711    0.22188    0.39674   1.00
C3       0.78550    0.25973    0.41826   1.00
H1       0.81241    0.26764    0.40385   1.00
C3a      0.71658    0.24124    0.45713   1.00
H1       0.69025    0.23224    0.47202   1.00
C3b      0.78488    0.25968    0.45922   1.00
C4       0.75028    0.25032    0.47900   1.00
O3       0.77456    0.18328    0.52167   1.00
C5       0.65788    0.24926    0.38720   1.00
H2       0.64601    0.26367    0.41391   1.00
C5       0.62529    0.22694    0.36674   1.00
H2       0.66948    0.27220    0.36726   1.00
H2       0.60724    0.21210    0.38932   1.00
H2       0.63918    0.20346    0.34907   1.00
C5       0.59967    0.25320    0.34082   1.00
H2       0.58856    0.27819    0.35824   1.00
C5       0.56466    0.23023    0.32453   1.00
H2       0.61631    0.26439    0.31507   1.00
C5       0.75974    0.12357    0.49017   1.00
H2       0.77450    0.10471    0.51215   1.00
H2       0.78268    0.13378    0.46952   1.00
C5       0.72814    0.10059    0.46800   1.00
C5       0.74533    0.06219    0.45225   1.00
H2       0.71762    0.43485    0.69286   1.00
C5       0.77494    0.46351    0.68912   1.00
H2       0.73159    0.45191    0.64323   1.00
C5       0.97681    0.20375    0.53337   1.00
H2       0.96505    0.26037    0.50551   1.00
H2       0.93981    0.25241    0.55293   1.00
C5       0.53590    0.25866    0.30497   1.00
H2       0.57537    0.20813    0.30211   1.00
H2       0.54934    0.21429    0.34937   1.00
H2       0.77365    0.06857    0.43602   1.00
H2       0.75149    0.04158    0.47761   1.00
C5       0.71596    0.04304    0.42417   1.00
H2       0.79914    0.44414    0.70116   1.00
H2       0.78741    0.48357    0.66571   1.00
H2       0.76212    0.48184    0.71374   1.00
H2       0.96565    0.17633    0.51820   1.00
H2       1.00734    0.21089    0.52229   1.00
H2       0.97785    0.19860    0.56621   1.00
H2       0.55288    0.28230    0.28889   1.00
H2       0.51686    0.24204    0.28336   1.00
H2       0.51666    0.27268    0.32819   1.00
H2       0.72223    0.05302    0.39307   1.00
H2       0.71884    0.00996    0.42598   1.00
H2       0.68507    0.05196    0.43266   1.00
C5       0.87570    0.63218    0.23348   1.00
H2       0.86240    0.64745    0.20819   1.00
H2       0.89669    0.61090    0.22094   1.00
C5       0.89717    0.66194    0.25939   1.00
C5       0.93784    0.67123    0.24271   1.00
H2       0.90050    0.65015    0.28947   1.00
O3       0.77109    0.48000    0.31761   1.00
C4       0.74968    0.52100    0.24972   1.00
C3c      0.78282    0.54243    0.23868   1.00
H1       0.80901    0.52725    0.22983   1.00
C3d      0.71567    0.54135    0.26062   1.00
C3       0.78295    0.58354    0.23938   1.00
O2       0.81469    0.60248    0.22368   1.00
C3       0.71594    0.58227    0.26207   1.00
H1       0.68962    0.59657    0.27194   1.00
C2       0.74933    0.60439    0.25140   1.00
C5       0.74089    0.47879    0.34561   1.00
H2       0.73373    0.44838    0.35467   1.00
H2       0.71374    0.49266    0.33418   1.00
C5       0.75478    0.50129    0.38139   1.00
H2       0.76298    0.53137    0.37214   1.00
H2       0.78168    0.48698    0.39277   1.00
C5       0.72290    0.50262    0.41301   1.00
H2       0.71438    0.47268    0.42219   1.00
H2       0.69652    0.51811    0.40212   1.00
C5       0.73807    0.52445    0.44923   1.00
C5       0.65909    0.51105    0.24298   1.00
C5       0.84218    0.61070    0.25334   1.00
H2       0.67441    0.49088    0.22269   1.00
H2       0.64911    0.53712    0.22622   1.00
H2       0.85286    0.58300    0.26671   1.00
H2       0.82962    0.62895    0.27732   1.00
H2       0.88108    0.69030    0.26066   1.00
H2       0.61747    0.44247    0.21698   1.00
H2       0.59320    0.48763    0.20336   1.00
C2       0.74887    0.39605    0.25243   1.00
C3       0.74004    0.41597    0.21747   1.00
O2       0.72188    0.39674    0.18711   1.00
C3       0.75973    0.41826    0.28550   1.00
H1       0.76764    0.40385    0.31241   1.00
C3a      0.74124    0.45713    0.21658   1.00
H1       0.73224    0.47202    0.19025   1.00
C3b      0.75968    0.45922    0.28488   1.00
C4       0.75032    0.47900    0.25028   1.00
O3       0.68328    0.52167    0.27456   1.00
C5       0.74926    0.38720    0.15788   1.00
H2       0.76367    0.41391    0.14601   1.00
C5       0.72694    0.36674    0.12529   1.00
H2       0.77220    0.36726    0.16948   1.00
H2       0.71210    0.38932    0.10724   1.00
H2       0.70346    0.34907    0.13918   1.00
C5       0.75320    0.34082    0.09967   1.00
H2       0.77819    0.35824    0.08856   1.00
C5       0.73023    0.32453    0.06466   1.00
H2       0.76439    0.31507    0.11631   1.00
C5       0.62357    0.49017    0.25974   1.00
H2       0.60471    0.51215    0.27450   1.00
H2       0.63378    0.46952    0.28268   1.00
C5       0.60059    0.46800    0.22814   1.00
C5       0.56219    0.45225    0.24533   1.00
H2       0.93485    0.69286    0.21762   1.00
C5       0.96351    0.68912    0.27494   1.00
H2       0.95191    0.64323    0.23159   1.00
C5       0.70375    0.53337    0.47681   1.00
H2       0.76037    0.50551    0.46505   1.00
H2       0.75241    0.55293    0.43981   1.00
C5       0.75866    0.30497    0.03590   1.00
H2       0.70813    0.30211    0.07537   1.00
H2       0.71429    0.34937    0.04934   1.00
H2       0.56857    0.43602    0.27365   1.00
H2       0.54158    0.47761    0.25149   1.00
C5       0.54304    0.42417    0.21596   1.00
H2       0.94414    0.70116    0.29914   1.00
H2       0.98357    0.66571    0.28741   1.00
H2       0.98184    0.71374    0.26212   1.00
H2       0.67633    0.51820    0.46565   1.00
H2       0.71089    0.52229    0.50734   1.00
H2       0.69860    0.56621    0.47785   1.00
H2       0.78230    0.28889    0.05288   1.00
H2       0.74204    0.28336    0.01686   1.00
H2       0.77268    0.32819    0.01666   1.00
H2       0.55302    0.39307    0.22223   1.00
H2       0.50996    0.42598    0.21884   1.00
H2       0.55196    0.43266    0.18507   1.00
C5       0.36782    0.23348    0.12430   1.00
H2       0.35255    0.20819    0.13760   1.00
H2       0.38910    0.22094    0.10331   1.00
C5       0.33806    0.25939    0.10283   1.00
C5       0.32877    0.24271    0.06216   1.00
H2       0.34985    0.28947    0.09950   1.00
O3       0.52000    0.31761    0.22891   1.00
C4       0.47900    0.24972    0.25032   1.00
C3c      0.45757    0.23868    0.21718   1.00
H1       0.47275    0.22983    0.19099   1.00
C3d      0.45865    0.26062    0.28433   1.00
C3       0.41646    0.23938    0.21705   1.00
O2       0.39752    0.22368    0.18531   1.00
C3       0.41773    0.26207    0.28406   1.00
H1       0.40343    0.27194    0.31038   1.00
C2       0.39561    0.25140    0.25067   1.00
C5       0.52121    0.34561    0.25911   1.00
H2       0.55162    0.35467    0.26627   1.00
H2       0.50734    0.33418    0.28626   1.00
C5       0.49871    0.38139    0.24522   1.00
H2       0.46863    0.37214    0.23702   1.00
H2       0.51302    0.39277    0.21832   1.00
C5       0.49738    0.41301    0.27710   1.00
H2       0.52732    0.42219    0.28562   1.00
H2       0.48189    0.40212    0.30348   1.00
C5       0.47555    0.44923    0.26193   1.00
C5       0.48895    0.24298    0.34091   1.00
C5       0.38930    0.25334    0.15782   1.00
H2       0.50912    0.22269    0.32559   1.00
H2       0.46288    0.22622    0.35089   1.00
H2       0.41700    0.26671    0.14714   1.00
H2       0.37105    0.27732    0.17038   1.00
H2       0.30970    0.26066    0.11892   1.00
H2       0.55753    0.21698    0.38253   1.00
H2       0.51237    0.20336    0.40680   1.00
C2       0.60395    0.25243    0.25113   1.00
C3       0.58403    0.21747    0.25996   1.00
O2       0.60326    0.18711    0.27812   1.00
C3       0.58174    0.28550    0.24027   1.00
H1       0.59615    0.31241    0.23236   1.00
C3a      0.54287    0.21658    0.25876   1.00
H1       0.52798    0.19025    0.26776   1.00
C3b      0.54078    0.28488    0.24032   1.00
C4       0.52100    0.25028    0.24968   1.00
O3       0.47833    0.27456    0.31672   1.00
C5       0.61280    0.15788    0.25074   1.00
H2       0.58609    0.14601    0.23633   1.00
C5       0.63326    0.12529    0.27306   1.00
H2       0.63274    0.16948    0.22780   1.00
H2       0.61068    0.10724    0.28790   1.00
H2       0.65093    0.13918    0.29654   1.00
C5       0.65918    0.09967    0.24680   1.00
H2       0.64176    0.08856    0.22181   1.00
C5       0.67547    0.06466    0.26977   1.00
H2       0.68493    0.11631    0.23561   1.00
C5       0.50983    0.25974    0.37643   1.00
H2       0.48785    0.27450    0.39529   1.00
H2       0.53048    0.28268    0.36622   1.00
C5       0.53200    0.22814    0.39941   1.00
C5       0.54775    0.24533    0.43781   1.00
H2       0.30714    0.21762    0.06515   1.00
C5       0.31088    0.27494    0.03649   1.00
H2       0.35677    0.23159    0.04809   1.00
C5       0.46663    0.47681    0.29625   1.00
H2       0.49449    0.46505    0.23963   1.00
H2       0.44707    0.43981    0.24759   1.00
C5       0.69503    0.03590    0.24134   1.00
H2       0.69789    0.07537    0.29187   1.00
H2       0.65063    0.04934    0.28571   1.00
H2       0.56398    0.27365    0.43143   1.00
H2       0.52239    0.25149    0.45842   1.00
C5       0.57583    0.21596    0.45696   1.00
H2       0.29884    0.29914    0.05586   1.00
H2       0.33429    0.28741    0.01643   1.00
H2       0.28626    0.26212    0.01816   1.00
H2       0.48180    0.46565    0.32367   1.00
H2       0.47771    0.50734    0.28911   1.00
H2       0.43379    0.47785    0.30140   1.00
H2       0.71111    0.05288    0.21770   1.00
H2       0.71664    0.01686    0.25796   1.00
H2       0.67181    0.01666    0.22732   1.00
H2       0.60693    0.22223    0.44698   1.00
H2       0.57402    0.21884    0.49004   1.00
H2       0.56734    0.18507    0.44804   1.00
C5       1.13218    0.23348    0.37570   1.00
H2       1.14745    0.20819    0.36240   1.00
H2       1.11090    0.22094    0.39669   1.00
C5       1.16194    0.25939    0.39717   1.00
C5       1.17123    0.24271    0.43784   1.00
H2       1.15015    0.28947    0.40050   1.00
O3       0.98000    0.31761    0.27109   1.00
C4       1.02100    0.24972    0.24968   1.00
C3c      1.04243    0.23868    0.28282   1.00
H1       1.02725    0.22983    0.30901   1.00
C3d      1.04135    0.26062    0.21567   1.00
C3       1.08354    0.23938    0.28295   1.00
O2       1.10248    0.22368    0.31469   1.00
C3       1.08227    0.26207    0.21594   1.00
H1       1.09657    0.27194    0.18962   1.00
C2       1.10439    0.25140    0.24933   1.00
C5       0.97879    0.34561    0.24089   1.00
H2       0.94838    0.35467    0.23373   1.00
H2       0.99266    0.33418    0.21374   1.00
C5       1.00129    0.38139    0.25478   1.00
H2       1.03137    0.37214    0.26298   1.00
H2       0.98698    0.39277    0.28168   1.00
C5       1.00262    0.41301    0.22290   1.00
H2       0.97268    0.42219    0.21438   1.00
H2       1.01811    0.40212    0.19652   1.00
C5       1.02445    0.44923    0.23807   1.00
C5       1.01105    0.24298    0.15909   1.00
C5       1.11070    0.25334    0.34218   1.00
H2       0.99088    0.22269    0.17441   1.00
H2       1.03712    0.22622    0.14911   1.00
H2       1.08300    0.26671    0.35286   1.00
H2       1.12895    0.27732    0.32962   1.00
H2       1.19030    0.26066    0.38108   1.00
H2       0.94247    0.21698    0.11747   1.00
H2       0.98763    0.20336    0.09320   1.00
C2       0.89605    0.25243    0.24887   1.00
C3       0.91597    0.21747    0.24004   1.00
O2       0.89674    0.18711    0.22188   1.00
C3       0.91826    0.28550    0.25973   1.00
H1       0.90385    0.31241    0.26764   1.00
C3a      0.95713    0.21658    0.24124   1.00
H1       0.97202    0.19025    0.23224   1.00
C3b      0.95922    0.28488    0.25968   1.00
C4       0.97900    0.25028    0.25032   1.00
O3       1.02167    0.27456    0.18328   1.00
C5       0.88720    0.15788    0.24926   1.00
H2       0.91391    0.14601    0.26367   1.00
C5       0.86674    0.12529    0.22694   1.00
H2       0.86726    0.16948    0.27220   1.00
H2       0.88932    0.10724    0.21210   1.00
H2       0.84907    0.13918    0.20346   1.00
C5       0.84082    0.09967    0.25320   1.00
H2       0.85824    0.08856    0.27819   1.00
C5       0.82453    0.06466    0.23023   1.00
H2       0.81507    0.11631    0.26439   1.00
C5       0.99017    0.25974    0.12357   1.00
H2       1.01215    0.27450    0.10471   1.00
H2       0.96952    0.28268    0.13378   1.00
C5       0.96800    0.22814    0.10059   1.00
C5       0.95225    0.24533    0.06219   1.00
H2       1.19286    0.21762    0.43485   1.00
C5       1.18912    0.27494    0.46351   1.00
H2       1.14323    0.23159    0.45191   1.00
C5       1.03337    0.47681    0.20375   1.00
H2       1.00551    0.46505    0.26037   1.00
H2       1.05293    0.43981    0.25241   1.00
C5       0.80497    0.03590    0.25866   1.00
H2       0.80211    0.07537    0.20813   1.00
H2       0.84937    0.04934    0.21429   1.00
H2       0.93602    0.27365    0.06857   1.00
H2       0.97761    0.25149    0.04158   1.00
C5       0.92417    0.21596    0.04304   1.00
H2       1.20116    0.29914    0.44414   1.00
H2       1.16571    0.28741    0.48357   1.00
H2       1.21374    0.26212    0.48184   1.00
H2       1.01820    0.46565    0.17633   1.00
H2       1.02229    0.50734    0.21089   1.00
H2       1.06621    0.47785    0.19860   1.00
H2       0.78889    0.05288    0.28230   1.00
H2       0.78336    0.01686    0.24204   1.00
H2       0.82819    0.01666    0.27268   1.00
H2       0.89307    0.22223    0.05302   1.00
H2       0.92598    0.21884    0.00996   1.00
H2       0.93266    0.18507    0.05196   1.00
C5       0.62430    -0.13218   0.23348   1.00
H2       0.63760    -0.14745   0.20819   1.00
H2       0.60331    -0.11090   0.22094   1.00
C5       0.60283    -0.16194   0.25939   1.00
C5       0.56216    -0.17123   0.24271   1.00
H2       0.59950    -0.15015   0.28947   1.00
O3       0.72891    0.02000    0.31761   1.00
C4       0.75032    -0.02100   0.24972   1.00
C3c      0.71718    -0.04243   0.23868   1.00
H1       0.69099    -0.02725   0.22983   1.00
C3d      0.78433    -0.04135   0.26062   1.00
C3       0.71705    -0.08354   0.23938   1.00
O2       0.68531    -0.10248   0.22368   1.00
C3       0.78406    -0.08227   0.26207   1.00
H1       0.81038    -0.09657   0.27194   1.00
C2       0.75067    -0.10439   0.25140   1.00
C5       0.75911    0.02121    0.34561   1.00
H2       0.76627    0.05162    0.35467   1.00
H2       0.78626    0.00734    0.33418   1.00
C5       0.74522    -0.00129   0.38139   1.00
H2       0.73702    -0.03137   0.37214   1.00
H2       0.71832    0.01302    0.39277   1.00
C5       0.77710    -0.00262   0.41301   1.00
H2       0.78562    0.02732    0.42219   1.00
H2       0.80348    -0.01811   0.40212   1.00
C5       0.76193    -0.02445   0.44923   1.00
C5       0.84091    -0.01105   0.24298   1.00
C5       0.65782    -0.11070   0.25334   1.00
H2       0.82559    0.00912    0.22269   1.00
H2       0.85089    -0.03712   0.22622   1.00
H2       0.64714    -0.08300   0.26671   1.00
H2       0.67038    -0.12895   0.27732   1.00
H2       0.61892    -0.19030   0.26066   1.00
H2       0.88253    0.05753    0.21698   1.00
H2       0.90680    0.01237    0.20336   1.00
C2       0.75113    0.10395    0.25243   1.00
C3       0.75996    0.08403    0.21747   1.00
O2       0.77812    0.10326    0.18711   1.00
C3       0.74027    0.08174    0.28550   1.00
H1       0.73236    0.09615    0.31241   1.00
C3a      0.75876    0.04287    0.21658   1.00
H1       0.76776    0.02798    0.19025   1.00
C3b      0.74032    0.04078    0.28488   1.00
C4       0.74968    0.02100    0.25028   1.00
O3       0.81672    -0.02167   0.27456   1.00
C5       0.75074    0.11280    0.15788   1.00
H2       0.73633    0.08609    0.14601   1.00
C5       0.77306    0.13326    0.12529   1.00
H2       0.72780    0.13274    0.16948   1.00
H2       0.78790    0.11068    0.10724   1.00
H2       0.79654    0.15093    0.13918   1.00
C5       0.74680    0.15918    0.09967   1.00
H2       0.72181    0.14176    0.08856   1.00
C5       0.76977    0.17547    0.06466   1.00
H2       0.73561    0.18493    0.11631   1.00
C5       0.87643    0.00983    0.25974   1.00
H2       0.89529    -0.01215   0.27450   1.00
H2       0.86622    0.03048    0.28268   1.00
C5       0.89941    0.03200    0.22814   1.00
C5       0.93781    0.04775    0.24533   1.00
H2       0.56515    -0.19286   0.21762   1.00
C5       0.53649    -0.18912   0.27494   1.00
H2       0.54809    -0.14323   0.23159   1.00
C5       0.79625    -0.03337   0.47681   1.00
H2       0.73963    -0.00551   0.46505   1.00
H2       0.74759    -0.05293   0.43981   1.00
C5       0.74134    0.19503    0.03590   1.00
H2       0.79187    0.19789    0.07537   1.00
H2       0.78571    0.15063    0.04934   1.00
H2       0.93143    0.06398    0.27365   1.00
H2       0.95842    0.02239    0.25149   1.00
C5       0.95696    0.07583    0.21596   1.00
H2       0.55586    -0.20116   0.29914   1.00
H2       0.51643    -0.16571   0.28741   1.00
H2       0.51816    -0.21374   0.26212   1.00
H2       0.82367    -0.01820   0.46565   1.00
H2       0.78911    -0.02229   0.50734   1.00
H2       0.80140    -0.06621   0.47785   1.00
H2       0.71770    0.21111    0.05288   1.00
H2       0.75796    0.21664    0.01686   1.00
H2       0.72732    0.17181    0.01666   1.00
H2       0.94698    0.10693    0.22223   1.00
H2       0.99004    0.07402    0.21884   1.00
H2       0.94804    0.06734    0.18507   1.00
C5       0.73348    0.12430    -0.13218   1.00
H2       0.70819    0.13760    -0.14745   1.00
H2       0.72094    0.10331    -0.11090   1.00
C5       0.75939    0.10283    -0.16194   1.00
C5       0.74271    0.06216    -0.17123   1.00
H2       0.78947    0.09950    -0.15015   1.00
O3       0.81761    0.22891    0.02000   1.00
C4       0.74972    0.25032    -0.02100   1.00
C3c      0.73868    0.21718    -0.04243   1.00
H1       0.72983    0.19099    -0.02725   1.00
C3d      0.76062    0.28433    -0.04135   1.00
C3       0.73938    0.21705    -0.08354   1.00
O2       0.72368    0.18531    -0.10248   1.00
C3       0.76207    0.28406    -0.08227   1.00
H1       0.77194    0.31038    -0.09657   1.00
C2       0.75140    0.25067    -0.10439   1.00
C5       0.84561    0.25911    0.02121   1.00
H2       0.85467    0.26627    0.05162   1.00
H2       0.83418    0.28626    0.00734   1.00
C5       0.88139    0.24522    -0.00129   1.00
H2       0.87214    0.23702    -0.03137   1.00
H2       0.89277    0.21832    0.01302   1.00
C5       0.91301    0.27710    -0.00262   1.00
H2       0.92219    0.28562    0.02732   1.00
H2       0.90212    0.30348    -0.01811   1.00
C5       0.94923    0.26193    -0.02445   1.00
C5       0.74298    0.34091    -0.01105   1.00
C5       0.75334    0.15782    -0.11070   1.00
H2       0.72269    0.32559    0.00912   1.00
H2       0.72622    0.35089    -0.03712   1.00
H2       0.76671    0.14714    -0.08300   1.00
H2       0.77732    0.17038    -0.12895   1.00
H2       0.76066    0.11892    -0.19030   1.00
H2       0.71698    0.38253    0.05753   1.00
H2       0.70336    0.40680    0.01237   1.00
C2       0.75243    0.25113    0.10395   1.00
C3       0.71747    0.25996    0.08403   1.00
O2       0.68711    0.27812    0.10326   1.00
C3       0.78550    0.24027    0.08174   1.00
H1       0.81241    0.23236    0.09615   1.00
C3a      0.71658    0.25876    0.04287   1.00
H1       0.69025    0.26776    0.02798   1.00
C3b      0.78488    0.24032    0.04078   1.00
C4       0.75028    0.24968    0.02100   1.00
O3       0.77456    0.31672    -0.02167   1.00
C5       0.65788    0.25074    0.11280   1.00
H2       0.64601    0.23633    0.08609   1.00
C5       0.62529    0.27306    0.13326   1.00
H2       0.66948    0.22780    0.13274   1.00
H2       0.60724    0.28790    0.11068   1.00
H2       0.63918    0.29654    0.15093   1.00
C5       0.59967    0.24680    0.15918   1.00
H2       0.58856    0.22181    0.14176   1.00
C5       0.56466    0.26977    0.17547   1.00
H2       0.61631    0.23561    0.18493   1.00
C5       0.75974    0.37643    0.00983   1.00
H2       0.77450    0.39529    -0.01215   1.00
H2       0.78268    0.36622    0.03048   1.00
C5       0.72814    0.39941    0.03200   1.00
C5       0.74533    0.43781    0.04775   1.00
H2       0.71762    0.06515    -0.19286   1.00
C5       0.77494    0.03649    -0.18912   1.00
H2       0.73159    0.04809    -0.14323   1.00
C5       0.97681    0.29625    -0.03337   1.00
H2       0.96505    0.23963    -0.00551   1.00
H2       0.93981    0.24759    -0.05293   1.00
C5       0.53590    0.24134    0.19503   1.00
H2       0.57537    0.29187    0.19789   1.00
H2       0.54934    0.28571    0.15063   1.00
H2       0.77365    0.43143    0.06398   1.00
H2       0.75149    0.45842    0.02239   1.00
C5       0.71596    0.45696    0.07583   1.00
H2       0.79914    0.05586    -0.20116   1.00
H2       0.78741    0.01643    -0.16571   1.00
H2       0.76212    0.01816    -0.21374   1.00
H2       0.96565    0.32367    -0.01820   1.00
H2       1.00734    0.28911    -0.02229   1.00
H2       0.97785    0.30140    -0.06621   1.00
H2       0.55288    0.21770    0.21111   1.00
H2       0.51686    0.25796    0.21664   1.00
H2       0.51666    0.22732    0.17181   1.00
H2       0.72223    0.44698    0.10693   1.00
H2       0.71884    0.49004    0.07402   1.00
H2       0.68507    0.44804    0.06734   1.00
C5       0.98348    1.12570    1.38218   1.00
H2       0.95819    1.11240    1.39745   1.00
H2       0.97094    1.14669    1.36090   1.00
C5       1.00939    1.14717    1.41194   1.00
C5       0.99271    1.18784    1.42123   1.00
H2       1.03947    1.15050    1.40015   1.00
O3       1.06761    1.02109    1.23000   1.00
C4       0.99972    0.99968    1.27100   1.00
C3c      0.98868    1.03282    1.29243   1.00
H1       0.97983    1.05901    1.27725   1.00
C3d      1.01062    0.96567    1.29135   1.00
C3       0.98938    1.03295    1.33354   1.00
O2       0.97368    1.06469    1.35248   1.00
C3       1.01207    0.96594    1.33227   1.00
H1       1.02194    0.93962    1.34657   1.00
C2       1.00140    0.99933    1.35439   1.00
C5       1.09561    0.99089    1.22879   1.00
H2       1.10467    0.98373    1.19838   1.00
H2       1.08418    0.96374    1.24266   1.00
C5       1.13139    1.00478    1.25129   1.00
H2       1.12214    1.01298    1.28137   1.00
H2       1.14277    1.03168    1.23698   1.00
C5       1.16301    0.97290    1.25262   1.00
H2       1.17219    0.96438    1.22268   1.00
H2       1.15212    0.94652    1.26811   1.00
C5       1.19923    0.98807    1.27445   1.00
C5       0.99298    0.90909    1.26105   1.00
C5       1.00334    1.09218    1.36070   1.00
H2       0.97269    0.92441    1.24088   1.00
H2       0.97622    0.89911    1.28712   1.00
H2       1.01671    1.10286    1.33300   1.00
H2       1.02732    1.07962    1.37895   1.00
H2       1.01066    1.13108    1.44030   1.00
H2       0.96698    0.86747    1.19247   1.00
H2       0.95336    0.84320    1.23763   1.00
C2       1.00243    0.99887    1.14605   1.00
C3       0.96747    0.99004    1.16597   1.00
O2       0.93711    0.97188    1.14674   1.00
C3       1.03550    1.00973    1.16826   1.00
H1       1.06241    1.01764    1.15385   1.00
C3a      0.96658    0.99124    1.20713   1.00
H1       0.94025    0.98224    1.22202   1.00
C3b      1.03488    1.00968    1.20922   1.00
C4       1.00028    1.00032    1.22900   1.00
O3       1.02456    0.93328    1.27167   1.00
C5       0.90788    0.99926    1.13720   1.00
H2       0.89601    1.01367    1.16391   1.00
C5       0.87529    0.97694    1.11674   1.00
H2       0.91948    1.02220    1.11726   1.00
H2       0.85724    0.96210    1.13932   1.00
H2       0.88918    0.95346    1.09907   1.00
C5       0.84967    1.00320    1.09082   1.00
H2       0.83856    1.02819    1.10824   1.00
C5       0.81466    0.98023    1.07453   1.00
H2       0.86631    1.01439    1.06507   1.00
C5       1.00974    0.87357    1.24017   1.00
H2       1.02450    0.85471    1.26215   1.00
H2       1.03268    0.88378    1.21952   1.00
C5       0.97814    0.85059    1.21800   1.00
C5       0.99533    0.81219    1.20225   1.00
H2       0.96762    1.18485    1.44286   1.00
C5       1.02494    1.21351    1.43912   1.00
H2       0.98159    1.20191    1.39323   1.00
C5       1.22681    0.95375    1.28337   1.00
H2       1.21505    1.01037    1.25551   1.00
H2       1.18981    1.00241    1.30293   1.00
C5       0.78590    1.00866    1.05497   1.00
H2       0.82537    0.95813    1.05211   1.00
H2       0.79934    0.96429    1.09937   1.00
H2       1.02365    0.81857    1.18602   1.00
H2       1.00149    0.79158    1.22761   1.00
C5       0.96596    0.79304    1.17417   1.00
H2       1.04914    1.19414    1.45116   1.00
H2       1.03741    1.23357    1.41571   1.00
H2       1.01212    1.23184    1.46374   1.00
H2       1.21565    0.92633    1.26820   1.00
H2       1.25734    0.96089    1.27229   1.00
H2       1.22785    0.94860    1.31621   1.00
H2       0.80288    1.03230    1.03889   1.00
H2       0.76686    0.99204    1.03336   1.00
H2       0.76666    1.02268    1.07819   1.00
H2       0.97223    0.80302    1.14307   1.00
H2       0.96884    0.75996    1.17598   1.00
H2       0.93507    0.80196    1.18266   1.00
C5       1.12570    1.38218    0.98348   1.00
H2       1.11240    1.39745    0.95819   1.00
H2       1.14669    1.36090    0.97094   1.00
C5       1.14717    1.41194    1.00939   1.00
C5       1.18784    1.42123    0.99271   1.00
H2       1.15050    1.40015    1.03947   1.00
O3       1.02109    1.23000    1.06761   1.00
C4       0.99968    1.27100    0.99972   1.00
C3c      1.03282    1.29243    0.98868   1.00
H1       1.05901    1.27725    0.97983   1.00
C3d      0.96567    1.29135    1.01062   1.00
C3       1.03295    1.33354    0.98938   1.00
O2       1.06469    1.35248    0.97368   1.00
C3       0.96594    1.33227    1.01207   1.00
H1       0.93962    1.34657    1.02194   1.00
C2       0.99933    1.35439    1.00140   1.00
C5       0.99089    1.22879    1.09561   1.00
H2       0.98373    1.19838    1.10467   1.00
H2       0.96374    1.24266    1.08418   1.00
C5       1.00478    1.25129    1.13139   1.00
H2       1.01298    1.28137    1.12214   1.00
H2       1.03168    1.23698    1.14277   1.00
C5       0.97290    1.25262    1.16301   1.00
H2       0.96438    1.22268    1.17219   1.00
H2       0.94652    1.26811    1.15212   1.00
C5       0.98807    1.27445    1.19923   1.00
C5       0.90909    1.26105    0.99298   1.00
C5       1.09218    1.36070    1.00334   1.00
H2       0.92441    1.24088    0.97269   1.00
H2       0.89911    1.28712    0.97622   1.00
H2       1.10286    1.33300    1.01671   1.00
H2       1.07962    1.37895    1.02732   1.00
H2       1.13108    1.44030    1.01066   1.00
H2       0.86747    1.19247    0.96698   1.00
H2       0.84320    1.23763    0.95336   1.00
C2       0.99887    1.14605    1.00243   1.00
C3       0.99004    1.16597    0.96747   1.00
O2       0.97188    1.14674    0.93711   1.00
C3       1.00973    1.16826    1.03550   1.00
H1       1.01764    1.15385    1.06241   1.00
C3a      0.99124    1.20713    0.96658   1.00
H1       0.98224    1.22202    0.94025   1.00
C3b      1.00968    1.20922    1.03488   1.00
C4       1.00032    1.22900    1.00028   1.00
O3       0.93328    1.27167    1.02456   1.00
C5       0.99926    1.13720    0.90788   1.00
H2       1.01367    1.16391    0.89601   1.00
C5       0.97694    1.11674    0.87529   1.00
H2       1.02220    1.11726    0.91948   1.00
H2       0.96210    1.13932    0.85724   1.00
H2       0.95346    1.09907    0.88918   1.00
C5       1.00320    1.09082    0.84967   1.00
H2       1.02819    1.10824    0.83856   1.00
C5       0.98023    1.07453    0.81466   1.00
H2       1.01439    1.06507    0.86631   1.00
C5       0.87357    1.24017    1.00974   1.00
H2       0.85471    1.26215    1.02450   1.00
H2       0.88378    1.21952    1.03268   1.00
C5       0.85059    1.21800    0.97814   1.00
C5       0.81219    1.20225    0.99533   1.00
H2       1.18485    1.44286    0.96762   1.00
C5       1.21351    1.43912    1.02494   1.00
H2       1.20191    1.39323    0.98159   1.00
C5       0.95375    1.28337    1.22681   1.00
H2       1.01037    1.25551    1.21505   1.00
H2       1.00241    1.30293    1.18981   1.00
C5       1.00866    1.05497    0.78590   1.00
H2       0.95813    1.05211    0.82537   1.00
H2       0.96429    1.09937    0.79934   1.00
H2       0.81857    1.18602    1.02365   1.00
H2       0.79158    1.22761    1.00149   1.00
C5       0.79304    1.17417    0.96596   1.00
H2       1.19414    1.45116    1.04914   1.00
H2       1.23357    1.41571    1.03741   1.00
H2       1.23184    1.46374    1.01212   1.00
H2       0.92633    1.26820    1.21565   1.00
H2       0.96089    1.27229    1.25734   1.00
H2       0.94860    1.31621    1.22785   1.00
H2       1.03230    1.03889    0.80288   1.00
H2       0.99204    1.03336    0.76686   1.00
H2       1.02268    1.07819    0.76666   1.00
H2       0.80302    1.14307    0.97223   1.00
H2       0.75996    1.17598    0.96884   1.00
H2       0.80196    1.18266    0.93507   1.00
C5       0.61782    0.98348    0.87430   1.00
H2       0.60255    0.95819    0.88760   1.00
H2       0.63910    0.97094    0.85331   1.00
C5       0.58806    1.00939    0.85283   1.00
C5       0.57877    0.99271    0.81216   1.00
H2       0.59985    1.03947    0.84950   1.00
O3       0.77000    1.06761    0.97891   1.00
C4       0.72900    0.99972    1.00032   1.00
C3c      0.70757    0.98868    0.96718   1.00
H1       0.72275    0.97983    0.94099   1.00
C3d      0.70865    1.01062    1.03433   1.00
C3       0.66646    0.98938    0.96705   1.00
O2       0.64752    0.97368    0.93531   1.00
C3       0.66773    1.01207    1.03406   1.00
H1       0.65343    1.02194    1.06038   1.00
C2       0.64561    1.00140    1.00067   1.00
C5       0.77121    1.09561    1.00911   1.00
H2       0.80162    1.10467    1.01627   1.00
H2       0.75734    1.08418    1.03626   1.00
C5       0.74871    1.13139    0.99522   1.00
H2       0.71863    1.12214    0.98702   1.00
H2       0.76302    1.14277    0.96832   1.00
C5       0.74738    1.16301    1.02710   1.00
H2       0.77732    1.17219    1.03562   1.00
H2       0.73189    1.15212    1.05348   1.00
C5       0.72555    1.19923    1.01193   1.00
C5       0.73895    0.99298    1.09091   1.00
C5       0.63930    1.00334    0.90782   1.00
H2       0.75912    0.97269    1.07559   1.00
H2       0.71288    0.97622    1.10089   1.00
H2       0.66700    1.01671    0.89714   1.00
H2       0.62105    1.02732    0.92038   1.00
H2       0.55970    1.01066    0.86892   1.00
H2       0.80753    0.96698    1.13253   1.00
H2       0.76237    0.95336    1.15680   1.00
C2       0.85395    1.00243    1.00113   1.00
C3       0.83403    0.96747    1.00996   1.00
O2       0.85326    0.93711    1.02812   1.00
C3       0.83174    1.03550    0.99027   1.00
H1       0.84615    1.06241    0.98236   1.00
C3a      0.79287    0.96658    1.00876   1.00
H1       0.77798    0.94025    1.01776   1.00
C3b      0.79078    1.03488    0.99032   1.00
C4       0.77100    1.00028    0.99968   1.00
O3       0.72833    1.02456    1.06672   1.00
C5       0.86280    0.90788    1.00074   1.00
H2       0.83609    0.89601    0.98633   1.00
C5       0.88326    0.87529    1.02306   1.00
H2       0.88274    0.91948    0.97780   1.00
H2       0.86068    0.85724    1.03790   1.00
H2       0.90093    0.88918    1.04654   1.00
C5       0.90918    0.84967    0.99680   1.00
H2       0.89176    0.83856    0.97181   1.00
C5       0.92547    0.81466    1.01977   1.00
H2       0.93493    0.86631    0.98561   1.00
C5       0.75983    1.00974    1.12643   1.00
H2       0.73785    1.02450    1.14529   1.00
H2       0.78048    1.03268    1.11622   1.00
C5       0.78200    0.97814    1.14941   1.00
C5       0.79775    0.99533    1.18781   1.00
H2       0.55714    0.96762    0.81515   1.00
C5       0.56088    1.02494    0.78649   1.00
H2       0.60677    0.98159    0.79809   1.00
C5       0.71663    1.22681    1.04625   1.00
H2       0.74449    1.21505    0.98963   1.00
H2       0.69707    1.18981    0.99759   1.00
C5       0.94503    0.78590    0.99134   1.00
H2       0.94789    0.82537    1.04187   1.00
H2       0.90063    0.79934    1.03571   1.00
H2       0.81398    1.02365    1.18143   1.00
H2       0.77239    1.00149    1.20842   1.00
C5       0.82583    0.96596    1.20696   1.00
H2       0.54884    1.04914    0.80586   1.00
H2       0.58429    1.03741    0.76643   1.00
H2       0.53626    1.01212    0.76816   1.00
H2       0.73180    1.21565    1.07367   1.00
H2       0.72771    1.25734    1.03911   1.00
H2       0.68379    1.22785    1.05140   1.00
H2       0.96111    0.80288    0.96770   1.00
H2       0.96664    0.76686    1.00796   1.00
H2       0.92181    0.76666    0.97732   1.00
H2       0.85693    0.97223    1.19698   1.00
H2       0.82402    0.96884    1.24004   1.00
H2       0.81734    0.93507    1.19804   1.00
C5       1.38218    0.98348    1.12570   1.00
H2       1.39745    0.95819    1.11240   1.00
H2       1.36090    0.97094    1.14669   1.00
C5       1.41194    1.00939    1.14717   1.00
C5       1.42123    0.99271    1.18784   1.00
H2       1.40015    1.03947    1.15050   1.00
O3       1.23000    1.06761    1.02109   1.00
C4       1.27100    0.99972    0.99968   1.00
C3c      1.29243    0.98868    1.03282   1.00
H1       1.27725    0.97983    1.05901   1.00
C3d      1.29135    1.01062    0.96567   1.00
C3       1.33354    0.98938    1.03295   1.00
O2       1.35248    0.97368    1.06469   1.00
C3       1.33227    1.01207    0.96594   1.00
H1       1.34657    1.02194    0.93962   1.00
C2       1.35439    1.00140    0.99933   1.00
C5       1.22879    1.09561    0.99089   1.00
H2       1.19838    1.10467    0.98373   1.00
H2       1.24266    1.08418    0.96374   1.00
C5       1.25129    1.13139    1.00478   1.00
H2       1.28137    1.12214    1.01298   1.00
H2       1.23698    1.14277    1.03168   1.00
C5       1.25262    1.16301    0.97290   1.00
H2       1.22268    1.17219    0.96438   1.00
H2       1.26811    1.15212    0.94652   1.00
C5       1.27445    1.19923    0.98807   1.00
C5       1.26105    0.99298    0.90909   1.00
C5       1.36070    1.00334    1.09218   1.00
H2       1.24088    0.97269    0.92441   1.00
H2       1.28712    0.97622    0.89911   1.00
H2       1.33300    1.01671    1.10286   1.00
H2       1.37895    1.02732    1.07962   1.00
H2       1.44030    1.01066    1.13108   1.00
H2       1.19247    0.96698    0.86747   1.00
H2       1.23763    0.95336    0.84320   1.00
C2       1.14605    1.00243    0.99887   1.00
C3       1.16597    0.96747    0.99004   1.00
O2       1.14674    0.93711    0.97188   1.00
C3       1.16826    1.03550    1.00973   1.00
H1       1.15385    1.06241    1.01764   1.00
C3a      1.20713    0.96658    0.99124   1.00
H1       1.22202    0.94025    0.98224   1.00
C3b      1.20922    1.03488    1.00968   1.00
C4       1.22900    1.00028    1.00032   1.00
O3       1.27167    1.02456    0.93328   1.00
C5       1.13720    0.90788    0.99926   1.00
H2       1.16391    0.89601    1.01367   1.00
C5       1.11674    0.87529    0.97694   1.00
H2       1.11726    0.91948    1.02220   1.00
H2       1.13932    0.85724    0.96210   1.00
H2       1.09907    0.88918    0.95346   1.00
C5       1.09082    0.84967    1.00320   1.00
H2       1.10824    0.83856    1.02819   1.00
C5       1.07453    0.81466    0.98023   1.00
H2       1.06507    0.86631    1.01439   1.00
C5       1.24017    1.00974    0.87357   1.00
H2       1.26215    1.02450    0.85471   1.00
H2       1.21952    1.03268    0.88378   1.00
C5       1.21800    0.97814    0.85059   1.00
C5       1.20225    0.99533    0.81219   1.00
H2       1.44286    0.96762    1.18485   1.00
C5       1.43912    1.02494    1.21351   1.00
H2       1.39323    0.98159    1.20191   1.00
C5       1.28337    1.22681    0.95375   1.00
H2       1.25551    1.21505    1.01037   1.00
H2       1.30293    1.18981    1.00241   1.00
C5       1.05497    0.78590    1.00866   1.00
H2       1.05211    0.82537    0.95813   1.00
H2       1.09937    0.79934    0.96429   1.00
H2       1.18602    1.02365    0.81857   1.00
H2       1.22761    1.00149    0.79158   1.00
C5       1.17417    0.96596    0.79304   1.00
H2       1.45116    1.04914    1.19414   1.00
H2       1.41571    1.03741    1.23357   1.00
H2       1.46374    1.01212    1.23184   1.00
H2       1.26820    1.21565    0.92633   1.00
H2       1.27229    1.25734    0.96089   1.00
H2       1.31621    1.22785    0.94860   1.00
H2       1.03889    0.80288    1.03230   1.00
H2       1.03336    0.76686    0.99204   1.00
H2       1.07819    0.76666    1.02268   1.00
H2       1.14307    0.97223    0.80302   1.00
H2       1.17598    0.96884    0.75996   1.00
H2       1.18266    0.93507    0.80196   1.00
C5       0.87430    0.61782    0.98348   1.00
H2       0.88760    0.60255    0.95819   1.00
H2       0.85331    0.63910    0.97094   1.00
C5       0.85283    0.58806    1.00939   1.00
C5       0.81216    0.57877    0.99271   1.00
H2       0.84950    0.59985    1.03947   1.00
O3       0.97891    0.77000    1.06761   1.00
C4       1.00032    0.72900    0.99972   1.00
C3c      0.96718    0.70757    0.98868   1.00
H1       0.94099    0.72275    0.97983   1.00
C3d      1.03433    0.70865    1.01062   1.00
C3       0.96705    0.66646    0.98938   1.00
O2       0.93531    0.64752    0.97368   1.00
C3       1.03406    0.66773    1.01207   1.00
H1       1.06038    0.65343    1.02194   1.00
C2       1.00067    0.64561    1.00140   1.00
C5       1.00911    0.77121    1.09561   1.00
H2       1.01627    0.80162    1.10467   1.00
H2       1.03626    0.75734    1.08418   1.00
C5       0.99522    0.74871    1.13139   1.00
H2       0.98702    0.71863    1.12214   1.00
H2       0.96832    0.76302    1.14277   1.00
C5       1.02710    0.74738    1.16301   1.00
H2       1.03562    0.77732    1.17219   1.00
H2       1.05348    0.73189    1.15212   1.00
C5       1.01193    0.72555    1.19923   1.00
C5       1.09091    0.73895    0.99298   1.00
C5       0.90782    0.63930    1.00334   1.00
H2       1.07559    0.75912    0.97269   1.00
H2       1.10089    0.71288    0.97622   1.00
H2       0.89714    0.66700    1.01671   1.00
H2       0.92038    0.62105    1.02732   1.00
H2       0.86892    0.55970    1.01066   1.00
H2       1.13253    0.80753    0.96698   1.00
H2       1.15680    0.76237    0.95336   1.00
C2       1.00113    0.85395    1.00243   1.00
C3       1.00996    0.83403    0.96747   1.00
O2       1.02812    0.85326    0.93711   1.00
C3       0.99027    0.83174    1.03550   1.00
H1       0.98236    0.84615    1.06241   1.00
C3a      1.00876    0.79287    0.96658   1.00
H1       1.01776    0.77798    0.94025   1.00
C3b      0.99032    0.79078    1.03488   1.00
C4       0.99968    0.77100    1.00028   1.00
O3       1.06672    0.72833    1.02456   1.00
C5       1.00074    0.86280    0.90788   1.00
H2       0.98633    0.83609    0.89601   1.00
C5       1.02306    0.88326    0.87529   1.00
H2       0.97780    0.88274    0.91948   1.00
H2       1.03790    0.86068    0.85724   1.00
H2       1.04654    0.90093    0.88918   1.00
C5       0.99680    0.90918    0.84967   1.00
H2       0.97181    0.89176    0.83856   1.00
C5       1.01977    0.92547    0.81466   1.00
H2       0.98561    0.93493    0.86631   1.00
C5       1.12643    0.75983    1.00974   1.00
H2       1.14529    0.73785    1.02450   1.00
H2       1.11622    0.78048    1.03268   1.00
C5       1.14941    0.78200    0.97814   1.00
C5       1.18781    0.79775    0.99533   1.00
H2       0.81515    0.55714    0.96762   1.00
C5       0.78649    0.56088    1.02494   1.00
H2       0.79809    0.60677    0.98159   1.00
C5       1.04625    0.71663    1.22681   1.00
H2       0.98963    0.74449    1.21505   1.00
H2       0.99759    0.69707    1.18981   1.00
C5       0.99134    0.94503    0.78590   1.00
H2       1.04187    0.94789    0.82537   1.00
H2       1.03571    0.90063    0.79934   1.00
H2       1.18143    0.81398    1.02365   1.00
H2       1.20842    0.77239    1.00149   1.00
C5       1.20696    0.82583    0.96596   1.00
H2       0.80586    0.54884    1.04914   1.00
H2       0.76643    0.58429    1.03741   1.00
H2       0.76816    0.53626    1.01212   1.00
H2       1.07367    0.73180    1.21565   1.00
H2       1.03911    0.72771    1.25734   1.00
H2       1.05140    0.68379    1.22785   1.00
H2       0.96770    0.96111    0.80288   1.00
H2       1.00796    0.96664    0.76686   1.00
H2       0.97732    0.92181    0.76666   1.00
H2       1.19698    0.85693    0.97223   1.00
H2       1.24004    0.82402    0.96884   1.00
H2       1.19804    0.81734    0.93507   1.00
C5       0.98348    0.87430    0.61782   1.00
H2       0.95819    0.88760    0.60255   1.00
H2       0.97094    0.85331    0.63910   1.00
C5       1.00939    0.85283    0.58806   1.00
C5       0.99271    0.81216    0.57877   1.00
H2       1.03947    0.84950    0.59985   1.00
O3       1.06761    0.97891    0.77000   1.00
C4       0.99972    1.00032    0.72900   1.00
C3c      0.98868    0.96718    0.70757   1.00
H1       0.97983    0.94099    0.72275   1.00
C3d      1.01062    1.03433    0.70865   1.00
C3       0.98938    0.96705    0.66646   1.00
O2       0.97368    0.93531    0.64752   1.00
C3       1.01207    1.03406    0.66773   1.00
H1       1.02194    1.06038    0.65343   1.00
C2       1.00140    1.00067    0.64561   1.00
C5       1.09561    1.00911    0.77121   1.00
H2       1.10467    1.01627    0.80162   1.00
H2       1.08418    1.03626    0.75734   1.00
C5       1.13139    0.99522    0.74871   1.00
H2       1.12214    0.98702    0.71863   1.00
H2       1.14277    0.96832    0.76302   1.00
C5       1.16301    1.02710    0.74738   1.00
H2       1.17219    1.03562    0.77732   1.00
H2       1.15212    1.05348    0.73189   1.00
C5       1.19923    1.01193    0.72555   1.00
C5       0.99298    1.09091    0.73895   1.00
C5       1.00334    0.90782    0.63930   1.00
H2       0.97269    1.07559    0.75912   1.00
H2       0.97622    1.10089    0.71288   1.00
H2       1.01671    0.89714    0.66700   1.00
H2       1.02732    0.92038    0.62105   1.00
H2       1.01066    0.86892    0.55970   1.00
H2       0.96698    1.13253    0.80753   1.00
H2       0.95336    1.15680    0.76237   1.00
C2       1.00243    1.00113    0.85395   1.00
C3       0.96747    1.00996    0.83403   1.00
O2       0.93711    1.02812    0.85326   1.00
C3       1.03550    0.99027    0.83174   1.00
H1       1.06241    0.98236    0.84615   1.00
C3a      0.96658    1.00876    0.79287   1.00
H1       0.94025    1.01776    0.77798   1.00
C3b      1.03488    0.99032    0.79078   1.00
C4       1.00028    0.99968    0.77100   1.00
O3       1.02456    1.06672    0.72833   1.00
C5       0.90788    1.00074    0.86280   1.00
H2       0.89601    0.98633    0.83609   1.00
C5       0.87529    1.02306    0.88326   1.00
H2       0.91948    0.97780    0.88274   1.00
H2       0.85724    1.03790    0.86068   1.00
H2       0.88918    1.04654    0.90093   1.00
C5       0.84967    0.99680    0.90918   1.00
H2       0.83856    0.97181    0.89176   1.00
C5       0.81466    1.01977    0.92547   1.00
H2       0.86631    0.98561    0.93493   1.00
C5       1.00974    1.12643    0.75983   1.00
H2       1.02450    1.14529    0.73785   1.00
H2       1.03268    1.11622    0.78048   1.00
C5       0.97814    1.14941    0.78200   1.00
C5       0.99533    1.18781    0.79775   1.00
H2       0.96762    0.81515    0.55714   1.00
C5       1.02494    0.78649    0.56088   1.00
H2       0.98159    0.79809    0.60677   1.00
C5       1.22681    1.04625    0.71663   1.00
H2       1.21505    0.98963    0.74449   1.00
H2       1.18981    0.99759    0.69707   1.00
C5       0.78590    0.99134    0.94503   1.00
H2       0.82537    1.04187    0.94789   1.00
H2       0.79934    1.03571    0.90063   1.00
H2       1.02365    1.18143    0.81398   1.00
H2       1.00149    1.20842    0.77239   1.00
C5       0.96596    1.20696    0.82583   1.00
H2       1.04914    0.80586    0.54884   1.00
H2       1.03741    0.76643    0.58429   1.00
H2       1.01212    0.76816    0.53626   1.00
H2       1.21565    1.07367    0.73180   1.00
H2       1.25734    1.03911    0.72771   1.00
H2       1.22785    1.05140    0.68379   1.00
H2       0.80288    0.96770    0.96111   1.00
H2       0.76686    1.00796    0.96664   1.00
H2       0.76666    0.97732    0.92181   1.00
H2       0.97223    1.19698    0.85693   1.00
H2       0.96884    1.24004    0.82402   1.00
H2       0.93507    1.19804    0.81734   1.00
C5       0.48348    0.62570    1.38218   1.00
H2       0.45819    0.61240    1.39745   1.00
H2       0.47094    0.64669    1.36090   1.00
C5       0.50939    0.64717    1.41194   1.00
C5       0.49271    0.68784    1.42123   1.00
H2       0.53947    0.65050    1.40015   1.00
O3       0.56761    0.52109    1.23000   1.00
C4       0.49972    0.49968    1.27100   1.00
C3c      0.48868    0.53282    1.29243   1.00
H1       0.47983    0.55901    1.27725   1.00
C3d      0.51062    0.46567    1.29135   1.00
C3       0.48938    0.53295    1.33354   1.00
O2       0.47368    0.56469    1.35248   1.00
C3       0.51207    0.46594    1.33227   1.00
H1       0.52194    0.43962    1.34657   1.00
C2       0.50140    0.49933    1.35439   1.00
C5       0.59561    0.49089    1.22879   1.00
H2       0.60467    0.48373    1.19838   1.00
H2       0.58418    0.46374    1.24266   1.00
C5       0.63139    0.50478    1.25129   1.00
H2       0.62214    0.51298    1.28137   1.00
H2       0.64277    0.53168    1.23698   1.00
C5       0.66301    0.47290    1.25262   1.00
H2       0.67219    0.46438    1.22268   1.00
H2       0.65212    0.44652    1.26811   1.00
C5       0.69923    0.48807    1.27445   1.00
C5       0.49298    0.40909    1.26105   1.00
C5       0.50334    0.59218    1.36070   1.00
H2       0.47269    0.42441    1.24088   1.00
H2       0.47622    0.39911    1.28712   1.00
H2       0.51671    0.60286    1.33300   1.00
H2       0.52732    0.57962    1.37895   1.00
H2       0.51066    0.63108    1.44030   1.00
H2       0.46698    0.36747    1.19247   1.00
H2       0.45336    0.34320    1.23763   1.00
C2       0.50243    0.49887    1.14605   1.00
C3       0.46747    0.49004    1.16597   1.00
O2       0.43711    0.47188    1.14674   1.00
C3       0.53550    0.50973    1.16826   1.00
H1       0.56241    0.51764    1.15385   1.00
C3a      0.46658    0.49124    1.20713   1.00
H1       0.44025    0.48224    1.22202   1.00
C3b      0.53488    0.50968    1.20922   1.00
C4       0.50028    0.50032    1.22900   1.00
O3       0.52456    0.43328    1.27167   1.00
C5       0.40788    0.49926    1.13720   1.00
H2       0.39601    0.51367    1.16391   1.00
C5       0.37529    0.47694    1.11674   1.00
H2       0.41948    0.52220    1.11726   1.00
H2       0.35724    0.46210    1.13932   1.00
H2       0.38918    0.45346    1.09907   1.00
C5       0.34967    0.50320    1.09082   1.00
H2       0.33856    0.52819    1.10824   1.00
C5       0.31466    0.48023    1.07453   1.00
H2       0.36631    0.51439    1.06507   1.00
C5       0.50974    0.37357    1.24017   1.00
H2       0.52450    0.35471    1.26215   1.00
H2       0.53268    0.38378    1.21952   1.00
C5       0.47814    0.35059    1.21800   1.00
C5       0.49533    0.31219    1.20225   1.00
H2       0.46762    0.68485    1.44286   1.00
C5       0.52494    0.71351    1.43912   1.00
H2       0.48159    0.70191    1.39323   1.00
C5       0.72681    0.45375    1.28337   1.00
H2       0.71505    0.51037    1.25551   1.00
H2       0.68981    0.50241    1.30293   1.00
C5       0.28590    0.50866    1.05497   1.00
H2       0.32537    0.45813    1.05211   1.00
H2       0.29934    0.46429    1.09937   1.00
H2       0.52365    0.31857    1.18602   1.00
H2       0.50149    0.29158    1.22761   1.00
C5       0.46596    0.29304    1.17417   1.00
H2       0.54914    0.69414    1.45116   1.00
H2       0.53741    0.73357    1.41571   1.00
H2       0.51212    0.73184    1.46374   1.00
H2       0.71565    0.42633    1.26820   1.00
H2       0.75734    0.46089    1.27229   1.00
H2       0.72785    0.44860    1.31621   1.00
H2       0.30288    0.53230    1.03889   1.00
H2       0.26686    0.49204    1.03336   1.00
H2       0.26666    0.52268    1.07819   1.00
H2       0.47223    0.30302    1.14307   1.00
H2       0.46884    0.25996    1.17598   1.00
H2       0.43507    0.30196    1.18266   1.00
C5       0.62570    0.88218    0.98348   1.00
H2       0.61240    0.89745    0.95819   1.00
H2       0.64669    0.86090    0.97094   1.00
C5       0.64717    0.91194    1.00939   1.00
C5       0.68784    0.92123    0.99271   1.00
H2       0.65050    0.90015    1.03947   1.00
O3       0.52109    0.73000    1.06761   1.00
C4       0.49968    0.77100    0.99972   1.00
C3c      0.53282    0.79243    0.98868   1.00
H1       0.55901    0.77725    0.97983   1.00
C3d      0.46567    0.79135    1.01062   1.00
C3       0.53295    0.83354    0.98938   1.00
O2       0.56469    0.85248    0.97368   1.00
C3       0.46594    0.83227    1.01207   1.00
H1       0.43962    0.84657    1.02194   1.00
C2       0.49933    0.85439    1.00140   1.00
C5       0.49089    0.72879    1.09561   1.00
H2       0.48373    0.69838    1.10467   1.00
H2       0.46374    0.74266    1.08418   1.00
C5       0.50478    0.75129    1.13139   1.00
H2       0.51298    0.78137    1.12214   1.00
H2       0.53168    0.73698    1.14277   1.00
C5       0.47290    0.75262    1.16301   1.00
H2       0.46438    0.72268    1.17219   1.00
H2       0.44652    0.76811    1.15212   1.00
C5       0.48807    0.77445    1.19923   1.00
C5       0.40909    0.76105    0.99298   1.00
C5       0.59218    0.86070    1.00334   1.00
H2       0.42441    0.74088    0.97269   1.00
H2       0.39911    0.78712    0.97622   1.00
H2       0.60286    0.83300    1.01671   1.00
H2       0.57962    0.87895    1.02732   1.00
H2       0.63108    0.94030    1.01066   1.00
H2       0.36747    0.69247    0.96698   1.00
H2       0.34320    0.73763    0.95336   1.00
C2       0.49887    0.64605    1.00243   1.00
C3       0.49004    0.66597    0.96747   1.00
O2       0.47188    0.64674    0.93711   1.00
C3       0.50973    0.66826    1.03550   1.00
H1       0.51764    0.65385    1.06241   1.00
C3a      0.49124    0.70713    0.96658   1.00
H1       0.48224    0.72202    0.94025   1.00
C3b      0.50968    0.70922    1.03488   1.00
C4       0.50032    0.72900    1.00028   1.00
O3       0.43328    0.77167    1.02456   1.00
C5       0.49926    0.63720    0.90788   1.00
H2       0.51367    0.66391    0.89601   1.00
C5       0.47694    0.61674    0.87529   1.00
H2       0.52220    0.61726    0.91948   1.00
H2       0.46210    0.63932    0.85724   1.00
H2       0.45346    0.59907    0.88918   1.00
C5       0.50320    0.59082    0.84967   1.00
H2       0.52819    0.60824    0.83856   1.00
C5       0.48023    0.57453    0.81466   1.00
H2       0.51439    0.56507    0.86631   1.00
C5       0.37357    0.74017    1.00974   1.00
H2       0.35471    0.76215    1.02450   1.00
H2       0.38378    0.71952    1.03268   1.00
C5       0.35059    0.71800    0.97814   1.00
C5       0.31219    0.70225    0.99533   1.00
H2       0.68485    0.94286    0.96762   1.00
C5       0.71351    0.93912    1.02494   1.00
H2       0.70191    0.89323    0.98159   1.00
C5       0.45375    0.78337    1.22681   1.00
H2       0.51037    0.75551    1.21505   1.00
H2       0.50241    0.80293    1.18981   1.00
C5       0.50866    0.55497    0.78590   1.00
H2       0.45813    0.55211    0.82537   1.00
H2       0.46429    0.59937    0.79934   1.00
H2       0.31857    0.68602    1.02365   1.00
H2       0.29158    0.72761    1.00149   1.00
C5       0.29304    0.67417    0.96596   1.00
H2       0.69414    0.95116    1.04914   1.00
H2       0.73357    0.91571    1.03741   1.00
H2       0.73184    0.96374    1.01212   1.00
H2       0.42633    0.76820    1.21565   1.00
H2       0.46089    0.77229    1.25734   1.00
H2       0.44860    0.81621    1.22785   1.00
H2       0.53230    0.53889    0.80288   1.00
H2       0.49204    0.53336    0.76686   1.00
H2       0.52268    0.57819    0.76666   1.00
H2       0.30302    0.64307    0.97223   1.00
H2       0.25996    0.67598    0.96884   1.00
H2       0.30196    0.68266    0.93507   1.00
C5       0.11782    0.48348    0.87430   1.00
H2       0.10255    0.45819    0.88760   1.00
H2       0.13910    0.47094    0.85331   1.00
C5       0.08806    0.50939    0.85283   1.00
C5       0.07877    0.49271    0.81216   1.00
H2       0.09985    0.53947    0.84950   1.00
O3       0.27000    0.56761    0.97891   1.00
C4       0.22900    0.49972    1.00032   1.00
C3c      0.20757    0.48868    0.96718   1.00
H1       0.22275    0.47983    0.94099   1.00
C3d      0.20865    0.51062    1.03433   1.00
C3       0.16646    0.48938    0.96705   1.00
O2       0.14752    0.47368    0.93531   1.00
C3       0.16773    0.51207    1.03406   1.00
H1       0.15343    0.52194    1.06038   1.00
C2       0.14561    0.50140    1.00067   1.00
C5       0.27121    0.59561    1.00911   1.00
H2       0.30162    0.60467    1.01627   1.00
H2       0.25734    0.58418    1.03626   1.00
C5       0.24871    0.63139    0.99522   1.00
H2       0.21863    0.62214    0.98702   1.00
H2       0.26302    0.64277    0.96832   1.00
C5       0.24738    0.66301    1.02710   1.00
H2       0.27732    0.67219    1.03562   1.00
H2       0.23189    0.65212    1.05348   1.00
C5       0.22555    0.69923    1.01193   1.00
C5       0.23895    0.49298    1.09091   1.00
C5       0.13930    0.50334    0.90782   1.00
H2       0.25912    0.47269    1.07559   1.00
H2       0.21288    0.47622    1.10089   1.00
H2       0.16700    0.51671    0.89714   1.00
H2       0.12105    0.52732    0.92038   1.00
H2       0.05970    0.51066    0.86892   1.00
H2       0.30753    0.46698    1.13253   1.00
H2       0.26237    0.45336    1.15680   1.00
C2       0.35395    0.50243    1.00113   1.00
C3       0.33403    0.46747    1.00996   1.00
O2       0.35326    0.43711    1.02812   1.00
C3       0.33174    0.53550    0.99027   1.00
H1       0.34615    0.56241    0.98236   1.00
C3a      0.29287    0.46658    1.00876   1.00
H1       0.27798    0.44025    1.01776   1.00
C3b      0.29078    0.53488    0.99032   1.00
C4       0.27100    0.50028    0.99968   1.00
O3       0.22833    0.52456    1.06672   1.00
C5       0.36280    0.40788    1.00074   1.00
H2       0.33609    0.39601    0.98633   1.00
C5       0.38326    0.37529    1.02306   1.00
H2       0.38274    0.41948    0.97780   1.00
H2       0.36068    0.35724    1.03790   1.00
H2       0.40093    0.38918    1.04654   1.00
C5       0.40918    0.34967    0.99680   1.00
H2       0.39176    0.33856    0.97181   1.00
C5       0.42547    0.31466    1.01977   1.00
H2       0.43493    0.36631    0.98561   1.00
C5       0.25983    0.50974    1.12643   1.00
H2       0.23785    0.52450    1.14529   1.00
H2       0.28048    0.53268    1.11622   1.00
C5       0.28200    0.47814    1.14941   1.00
C5       0.29775    0.49533    1.18781   1.00
H2       0.05714    0.46762    0.81515   1.00
C5       0.06088    0.52494    0.78649   1.00
H2       0.10677    0.48159    0.79809   1.00
C5       0.21663    0.72681    1.04625   1.00
H2       0.24449    0.71505    0.98963   1.00
H2       0.19707    0.68981    0.99759   1.00
C5       0.44503    0.28590    0.99134   1.00
H2       0.44789    0.32537    1.04187   1.00
H2       0.40063    0.29934    1.03571   1.00
H2       0.31398    0.52365    1.18143   1.00
H2       0.27239    0.50149    1.20842   1.00
C5       0.32583    0.46596    1.20696   1.00
H2       0.04884    0.54914    0.80586   1.00
H2       0.08429    0.53741    0.76643   1.00
H2       0.03626    0.51212    0.76816   1.00
H2       0.23180    0.71565    1.07367   1.00
H2       0.22771    0.75734    1.03911   1.00
H2       0.18379    0.72785    1.05140   1.00
H2       0.46111    0.30288    0.96770   1.00
H2       0.46664    0.26686    1.00796   1.00
H2       0.42181    0.26666    0.97732   1.00
H2       0.35693    0.47223    1.19698   1.00
H2       0.32402    0.46884    1.24004   1.00
H2       0.31734    0.43507    1.19804   1.00
C5       0.88218    0.48348    1.12570   1.00
H2       0.89745    0.45819    1.11240   1.00
H2       0.86090    0.47094    1.14669   1.00
C5       0.91194    0.50939    1.14717   1.00
C5       0.92123    0.49271    1.18784   1.00
H2       0.90015    0.53947    1.15050   1.00
O3       0.73000    0.56761    1.02109   1.00
C4       0.77100    0.49972    0.99968   1.00
C3c      0.79243    0.48868    1.03282   1.00
H1       0.77725    0.47983    1.05901   1.00
C3d      0.79135    0.51062    0.96567   1.00
C3       0.83354    0.48938    1.03295   1.00
O2       0.85248    0.47368    1.06469   1.00
C3       0.83227    0.51207    0.96594   1.00
H1       0.84657    0.52194    0.93962   1.00
C2       0.85439    0.50140    0.99933   1.00
C5       0.72879    0.59561    0.99089   1.00
H2       0.69838    0.60467    0.98373   1.00
H2       0.74266    0.58418    0.96374   1.00
C5       0.75129    0.63139    1.00478   1.00
H2       0.78137    0.62214    1.01298   1.00
H2       0.73698    0.64277    1.03168   1.00
C5       0.75262    0.66301    0.97290   1.00
H2       0.72268    0.67219    0.96438   1.00
H2       0.76811    0.65212    0.94652   1.00
C5       0.77445    0.69923    0.98807   1.00
C5       0.76105    0.49298    0.90909   1.00
C5       0.86070    0.50334    1.09218   1.00
H2       0.74088    0.47269    0.92441   1.00
H2       0.78712    0.47622    0.89911   1.00
H2       0.83300    0.51671    1.10286   1.00
H2       0.87895    0.52732    1.07962   1.00
H2       0.94030    0.51066    1.13108   1.00
H2       0.69247    0.46698    0.86747   1.00
H2       0.73763    0.45336    0.84320   1.00
C2       0.64605    0.50243    0.99887   1.00
C3       0.66597    0.46747    0.99004   1.00
O2       0.64674    0.43711    0.97188   1.00
C3       0.66826    0.53550    1.00973   1.00
H1       0.65385    0.56241    1.01764   1.00
C3a      0.70713    0.46658    0.99124   1.00
H1       0.72202    0.44025    0.98224   1.00
C3b      0.70922    0.53488    1.00968   1.00
C4       0.72900    0.50028    1.00032   1.00
O3       0.77167    0.52456    0.93328   1.00
C5       0.63720    0.40788    0.99926   1.00
H2       0.66391    0.39601    1.01367   1.00
C5       0.61674    0.37529    0.97694   1.00
H2       0.61726    0.41948    1.02220   1.00
H2       0.63932    0.35724    0.96210   1.00
H2       0.59907    0.38918    0.95346   1.00
C5       0.59082    0.34967    1.00320   1.00
H2       0.60824    0.33856    1.02819   1.00
C5       0.57453    0.31466    0.98023   1.00
H2       0.56507    0.36631    1.01439   1.00
C5       0.74017    0.50974    0.87357   1.00
H2       0.76215    0.52450    0.85471   1.00
H2       0.71952    0.53268    0.88378   1.00
C5       0.71800    0.47814    0.85059   1.00
C5       0.70225    0.49533    0.81219   1.00
H2       0.94286    0.46762    1.18485   1.00
C5       0.93912    0.52494    1.21351   1.00
H2       0.89323    0.48159    1.20191   1.00
C5       0.78337    0.72681    0.95375   1.00
H2       0.75551    0.71505    1.01037   1.00
H2       0.80293    0.68981    1.00241   1.00
C5       0.55497    0.28590    1.00866   1.00
H2       0.55211    0.32537    0.95813   1.00
H2       0.59937    0.29934    0.96429   1.00
H2       0.68602    0.52365    0.81857   1.00
H2       0.72761    0.50149    0.79158   1.00
C5       0.67417    0.46596    0.79304   1.00
H2       0.95116    0.54914    1.19414   1.00
H2       0.91571    0.53741    1.23357   1.00
H2       0.96374    0.51212    1.23184   1.00
H2       0.76820    0.71565    0.92633   1.00
H2       0.77229    0.75734    0.96089   1.00
H2       0.81621    0.72785    0.94860   1.00
H2       0.53889    0.30288    1.03230   1.00
H2       0.53336    0.26686    0.99204   1.00
H2       0.57819    0.26666    1.02268   1.00
H2       0.64307    0.47223    0.80302   1.00
H2       0.67598    0.46884    0.75996   1.00
H2       0.68266    0.43507    0.80196   1.00
C5       0.37430    0.11782    0.98348   1.00
H2       0.38760    0.10255    0.95819   1.00
H2       0.35331    0.13910    0.97094   1.00
C5       0.35283    0.08806    1.00939   1.00
C5       0.31216    0.07877    0.99271   1.00
H2       0.34950    0.09985    1.03947   1.00
O3       0.47891    0.27000    1.06761   1.00
C4       0.50032    0.22900    0.99972   1.00
C3c      0.46718    0.20757    0.98868   1.00
H1       0.44099    0.22275    0.97983   1.00
C3d      0.53433    0.20865    1.01062   1.00
C3       0.46705    0.16646    0.98938   1.00
O2       0.43531    0.14752    0.97368   1.00
C3       0.53406    0.16773    1.01207   1.00
H1       0.56038    0.15343    1.02194   1.00
C2       0.50067    0.14561    1.00140   1.00
C5       0.50911    0.27121    1.09561   1.00
H2       0.51627    0.30162    1.10467   1.00
H2       0.53626    0.25734    1.08418   1.00
C5       0.49522    0.24871    1.13139   1.00
H2       0.48702    0.21863    1.12214   1.00
H2       0.46832    0.26302    1.14277   1.00
C5       0.52710    0.24738    1.16301   1.00
H2       0.53562    0.27732    1.17219   1.00
H2       0.55348    0.23189    1.15212   1.00
C5       0.51193    0.22555    1.19923   1.00
C5       0.59091    0.23895    0.99298   1.00
C5       0.40782    0.13930    1.00334   1.00
H2       0.57559    0.25912    0.97269   1.00
H2       0.60089    0.21288    0.97622   1.00
H2       0.39714    0.16700    1.01671   1.00
H2       0.42038    0.12105    1.02732   1.00
H2       0.36892    0.05970    1.01066   1.00
H2       0.63253    0.30753    0.96698   1.00
H2       0.65680    0.26237    0.95336   1.00
C2       0.50113    0.35395    1.00243   1.00
C3       0.50996    0.33403    0.96747   1.00
O2       0.52812    0.35326    0.93711   1.00
C3       0.49027    0.33174    1.03550   1.00
H1       0.48236    0.34615    1.06241   1.00
C3a      0.50876    0.29287    0.96658   1.00
H1       0.51776    0.27798    0.94025   1.00
C3b      0.49032    0.29078    1.03488   1.00
C4       0.49968    0.27100    1.00028   1.00
O3       0.56672    0.22833    1.02456   1.00
C5       0.50074    0.36280    0.90788   1.00
H2       0.48633    0.33609    0.89601   1.00
C5       0.52306    0.38326    0.87529   1.00
H2       0.47780    0.38274    0.91948   1.00
H2       0.53790    0.36068    0.85724   1.00
H2       0.54654    0.40093    0.88918   1.00
C5       0.49680    0.40918    0.84967   1.00
H2       0.47181    0.39176    0.83856   1.00
C5       0.51977    0.42547    0.81466   1.00
H2       0.48561    0.43493    0.86631   1.00
C5       0.62643    0.25983    1.00974   1.00
H2       0.64529    0.23785    1.02450   1.00
H2       0.61622    0.28048    1.03268   1.00
C5       0.64941    0.28200    0.97814   1.00
C5       0.68781    0.29775    0.99533   1.00
H2       0.31515    0.05714    0.96762   1.00
C5       0.28649    0.06088    1.02494   1.00
H2       0.29809    0.10677    0.98159   1.00
C5       0.54625    0.21663    1.22681   1.00
H2       0.48963    0.24449    1.21505   1.00
H2       0.49759    0.19707    1.18981   1.00
C5       0.49134    0.44503    0.78590   1.00
H2       0.54187    0.44789    0.82537   1.00
H2       0.53571    0.40063    0.79934   1.00
H2       0.68143    0.31398    1.02365   1.00
H2       0.70842    0.27239    1.00149   1.00
C5       0.70696    0.32583    0.96596   1.00
H2       0.30586    0.04884    1.04914   1.00
H2       0.26643    0.08429    1.03741   1.00
H2       0.26816    0.03626    1.01212   1.00
H2       0.57367    0.23180    1.21565   1.00
H2       0.53911    0.22771    1.25734   1.00
H2       0.55140    0.18379    1.22785   1.00
H2       0.46770    0.46111    0.80288   1.00
H2       0.50796    0.46664    0.76686   1.00
H2       0.47732    0.42181    0.76666   1.00
H2       0.69698    0.35693    0.97223   1.00
H2       0.74004    0.32402    0.96884   1.00
H2       0.69804    0.31734    0.93507   1.00
C5       0.48348    0.37430    0.61782   1.00
H2       0.45819    0.38760    0.60255   1.00
H2       0.47094    0.35331    0.63910   1.00
C5       0.50939    0.35283    0.58806   1.00
C5       0.49271    0.31216    0.57877   1.00
H2       0.53947    0.34950    0.59985   1.00
O3       0.56761    0.47891    0.77000   1.00
C4       0.49972    0.50032    0.72900   1.00
C3c      0.48868    0.46718    0.70757   1.00
H1       0.47983    0.44099    0.72275   1.00
C3d      0.51062    0.53433    0.70865   1.00
C3       0.48938    0.46705    0.66646   1.00
O2       0.47368    0.43531    0.64752   1.00
C3       0.51207    0.53406    0.66773   1.00
H1       0.52194    0.56038    0.65343   1.00
C2       0.50140    0.50067    0.64561   1.00
C5       0.59561    0.50911    0.77121   1.00
H2       0.60467    0.51627    0.80162   1.00
H2       0.58418    0.53626    0.75734   1.00
C5       0.63139    0.49522    0.74871   1.00
H2       0.62214    0.48702    0.71863   1.00
H2       0.64277    0.46832    0.76302   1.00
C5       0.66301    0.52710    0.74738   1.00
H2       0.67219    0.53562    0.77732   1.00
H2       0.65212    0.55348    0.73189   1.00
C5       0.69923    0.51193    0.72555   1.00
C5       0.49298    0.59091    0.73895   1.00
C5       0.50334    0.40782    0.63930   1.00
H2       0.47269    0.57559    0.75912   1.00
H2       0.47622    0.60089    0.71288   1.00
H2       0.51671    0.39714    0.66700   1.00
H2       0.52732    0.42038    0.62105   1.00
H2       0.51066    0.36892    0.55970   1.00
H2       0.46698    0.63253    0.80753   1.00
H2       0.45336    0.65680    0.76237   1.00
C2       0.50243    0.50113    0.85395   1.00
C3       0.46747    0.50996    0.83403   1.00
O2       0.43711    0.52812    0.85326   1.00
C3       0.53550    0.49027    0.83174   1.00
H1       0.56241    0.48236    0.84615   1.00
C3a      0.46658    0.50876    0.79287   1.00
H1       0.44025    0.51776    0.77798   1.00
C3b      0.53488    0.49032    0.79078   1.00
C4       0.50028    0.49968    0.77100   1.00
O3       0.52456    0.56672    0.72833   1.00
C5       0.40788    0.50074    0.86280   1.00
H2       0.39601    0.48633    0.83609   1.00
C5       0.37529    0.52306    0.88326   1.00
H2       0.41948    0.47780    0.88274   1.00
H2       0.35724    0.53790    0.86068   1.00
H2       0.38918    0.54654    0.90093   1.00
C5       0.34967    0.49680    0.90918   1.00
H2       0.33856    0.47181    0.89176   1.00
C5       0.31466    0.51977    0.92547   1.00
H2       0.36631    0.48561    0.93493   1.00
C5       0.50974    0.62643    0.75983   1.00
H2       0.52450    0.64529    0.73785   1.00
H2       0.53268    0.61622    0.78048   1.00
C5       0.47814    0.64941    0.78200   1.00
C5       0.49533    0.68781    0.79775   1.00
H2       0.46762    0.31515    0.55714   1.00
C5       0.52494    0.28649    0.56088   1.00
H2       0.48159    0.29809    0.60677   1.00
C5       0.72681    0.54625    0.71663   1.00
H2       0.71505    0.48963    0.74449   1.00
H2       0.68981    0.49759    0.69707   1.00
C5       0.28590    0.49134    0.94503   1.00
H2       0.32537    0.54187    0.94789   1.00
H2       0.29934    0.53571    0.90063   1.00
H2       0.52365    0.68143    0.81398   1.00
H2       0.50149    0.70842    0.77239   1.00
C5       0.46596    0.70696    0.82583   1.00
H2       0.54914    0.30586    0.54884   1.00
H2       0.53741    0.26643    0.58429   1.00
H2       0.51212    0.26816    0.53626   1.00
H2       0.71565    0.57367    0.73180   1.00
H2       0.75734    0.53911    0.72771   1.00
H2       0.72785    0.55140    0.68379   1.00
H2       0.30288    0.46770    0.96111   1.00
H2       0.26686    0.50796    0.96664   1.00
H2       0.26666    0.47732    0.92181   1.00
H2       0.47223    0.69698    0.85693   1.00
H2       0.46884    0.74004    0.82402   1.00
H2       0.43507    0.69804    0.81734   1.00
C5       0.48348    1.12570    0.88218   1.00
H2       0.45819    1.11240    0.89745   1.00
H2       0.47094    1.14669    0.86090   1.00
C5       0.50939    1.14717    0.91194   1.00
C5       0.49271    1.18784    0.92123   1.00
H2       0.53947    1.15050    0.90015   1.00
O3       0.56761    1.02109    0.73000   1.00
C4       0.49972    0.99968    0.77100   1.00
C3c      0.48868    1.03282    0.79243   1.00
H1       0.47983    1.05901    0.77725   1.00
C3d      0.51062    0.96567    0.79135   1.00
C3       0.48938    1.03295    0.83354   1.00
O2       0.47368    1.06469    0.85248   1.00
C3       0.51207    0.96594    0.83227   1.00
H1       0.52194    0.93962    0.84657   1.00
C2       0.50140    0.99933    0.85439   1.00
C5       0.59561    0.99089    0.72879   1.00
H2       0.60467    0.98373    0.69838   1.00
H2       0.58418    0.96374    0.74266   1.00
C5       0.63139    1.00478    0.75129   1.00
H2       0.62214    1.01298    0.78137   1.00
H2       0.64277    1.03168    0.73698   1.00
C5       0.66301    0.97290    0.75262   1.00
H2       0.67219    0.96438    0.72268   1.00
H2       0.65212    0.94652    0.76811   1.00
C5       0.69923    0.98807    0.77445   1.00
C5       0.49298    0.90909    0.76105   1.00
C5       0.50334    1.09218    0.86070   1.00
H2       0.47269    0.92441    0.74088   1.00
H2       0.47622    0.89911    0.78712   1.00
H2       0.51671    1.10286    0.83300   1.00
H2       0.52732    1.07962    0.87895   1.00
H2       0.51066    1.13108    0.94030   1.00
H2       0.46698    0.86747    0.69247   1.00
H2       0.45336    0.84320    0.73763   1.00
C2       0.50243    0.99887    0.64605   1.00
C3       0.46747    0.99004    0.66597   1.00
O2       0.43711    0.97188    0.64674   1.00
C3       0.53550    1.00973    0.66826   1.00
H1       0.56241    1.01764    0.65385   1.00
C3a      0.46658    0.99124    0.70713   1.00
H1       0.44025    0.98224    0.72202   1.00
C3b      0.53488    1.00968    0.70922   1.00
C4       0.50028    1.00032    0.72900   1.00
O3       0.52456    0.93328    0.77167   1.00
C5       0.40788    0.99926    0.63720   1.00
H2       0.39601    1.01367    0.66391   1.00
C5       0.37529    0.97694    0.61674   1.00
H2       0.41948    1.02220    0.61726   1.00
H2       0.35724    0.96210    0.63932   1.00
H2       0.38918    0.95346    0.59907   1.00
C5       0.34967    1.00320    0.59082   1.00
H2       0.33856    1.02819    0.60824   1.00
C5       0.31466    0.98023    0.57453   1.00
H2       0.36631    1.01439    0.56507   1.00
C5       0.50974    0.87357    0.74017   1.00
H2       0.52450    0.85471    0.76215   1.00
H2       0.53268    0.88378    0.71952   1.00
C5       0.47814    0.85059    0.71800   1.00
C5       0.49533    0.81219    0.70225   1.00
H2       0.46762    1.18485    0.94286   1.00
C5       0.52494    1.21351    0.93912   1.00
H2       0.48159    1.20191    0.89323   1.00
C5       0.72681    0.95375    0.78337   1.00
H2       0.71505    1.01037    0.75551   1.00
H2       0.68981    1.00241    0.80293   1.00
C5       0.28590    1.00866    0.55497   1.00
H2       0.32537    0.95813    0.55211   1.00
H2       0.29934    0.96429    0.59937   1.00
H2       0.52365    0.81857    0.68602   1.00
H2       0.50149    0.79158    0.72761   1.00
C5       0.46596    0.79304    0.67417   1.00
H2       0.54914    1.19414    0.95116   1.00
H2       0.53741    1.23357    0.91571   1.00
H2       0.51212    1.23184    0.96374   1.00
H2       0.71565    0.92633    0.76820   1.00
H2       0.75734    0.96089    0.77229   1.00
H2       0.72785    0.94860    0.81621   1.00
H2       0.30288    1.03230    0.53889   1.00
H2       0.26686    0.99204    0.53336   1.00
H2       0.26666    1.02268    0.57819   1.00
H2       0.47223    0.80302    0.64307   1.00
H2       0.46884    0.75996    0.67598   1.00
H2       0.43507    0.80196    0.68266   1.00
C5       0.62570    1.38218    0.48348   1.00
H2       0.61240    1.39745    0.45819   1.00
H2       0.64669    1.36090    0.47094   1.00
C5       0.64717    1.41194    0.50939   1.00
C5       0.68784    1.42123    0.49271   1.00
H2       0.65050    1.40015    0.53947   1.00
O3       0.52109    1.23000    0.56761   1.00
C4       0.49968    1.27100    0.49972   1.00
C3c      0.53282    1.29243    0.48868   1.00
H1       0.55901    1.27725    0.47983   1.00
C3d      0.46567    1.29135    0.51062   1.00
C3       0.53295    1.33354    0.48938   1.00
O2       0.56469    1.35248    0.47368   1.00
C3       0.46594    1.33227    0.51207   1.00
H1       0.43962    1.34657    0.52194   1.00
C2       0.49933    1.35439    0.50140   1.00
C5       0.49089    1.22879    0.59561   1.00
H2       0.48373    1.19838    0.60467   1.00
H2       0.46374    1.24266    0.58418   1.00
C5       0.50478    1.25129    0.63139   1.00
H2       0.51298    1.28137    0.62214   1.00
H2       0.53168    1.23698    0.64277   1.00
C5       0.47290    1.25262    0.66301   1.00
H2       0.46438    1.22268    0.67219   1.00
H2       0.44652    1.26811    0.65212   1.00
C5       0.48807    1.27445    0.69923   1.00
C5       0.40909    1.26105    0.49298   1.00
C5       0.59218    1.36070    0.50334   1.00
H2       0.42441    1.24088    0.47269   1.00
H2       0.39911    1.28712    0.47622   1.00
H2       0.60286    1.33300    0.51671   1.00
H2       0.57962    1.37895    0.52732   1.00
H2       0.63108    1.44030    0.51066   1.00
H2       0.36747    1.19247    0.46698   1.00
H2       0.34320    1.23763    0.45336   1.00
C2       0.49887    1.14605    0.50243   1.00
C3       0.49004    1.16597    0.46747   1.00
O2       0.47188    1.14674    0.43711   1.00
C3       0.50973    1.16826    0.53550   1.00
H1       0.51764    1.15385    0.56241   1.00
C3a      0.49124    1.20713    0.46658   1.00
H1       0.48224    1.22202    0.44025   1.00
C3b      0.50968    1.20922    0.53488   1.00
C4       0.50032    1.22900    0.50028   1.00
O3       0.43328    1.27167    0.52456   1.00
C5       0.49926    1.13720    0.40788   1.00
H2       0.51367    1.16391    0.39601   1.00
C5       0.47694    1.11674    0.37529   1.00
H2       0.52220    1.11726    0.41948   1.00
H2       0.46210    1.13932    0.35724   1.00
H2       0.45346    1.09907    0.38918   1.00
C5       0.50320    1.09082    0.34967   1.00
H2       0.52819    1.10824    0.33856   1.00
C5       0.48023    1.07453    0.31466   1.00
H2       0.51439    1.06507    0.36631   1.00
C5       0.37357    1.24017    0.50974   1.00
H2       0.35471    1.26215    0.52450   1.00
H2       0.38378    1.21952    0.53268   1.00
C5       0.35059    1.21800    0.47814   1.00
C5       0.31219    1.20225    0.49533   1.00
H2       0.68485    1.44286    0.46762   1.00
C5       0.71351    1.43912    0.52494   1.00
H2       0.70191    1.39323    0.48159   1.00
C5       0.45375    1.28337    0.72681   1.00
H2       0.51037    1.25551    0.71505   1.00
H2       0.50241    1.30293    0.68981   1.00
C5       0.50866    1.05497    0.28590   1.00
H2       0.45813    1.05211    0.32537   1.00
H2       0.46429    1.09937    0.29934   1.00
H2       0.31857    1.18602    0.52365   1.00
H2       0.29158    1.22761    0.50149   1.00
C5       0.29304    1.17417    0.46596   1.00
H2       0.69414    1.45116    0.54914   1.00
H2       0.73357    1.41571    0.53741   1.00
H2       0.73184    1.46374    0.51212   1.00
H2       0.42633    1.26820    0.71565   1.00
H2       0.46089    1.27229    0.75734   1.00
H2       0.44860    1.31621    0.72785   1.00
H2       0.53230    1.03889    0.30288   1.00
H2       0.49204    1.03336    0.26686   1.00
H2       0.52268    1.07819    0.26666   1.00
H2       0.30302    1.14307    0.47223   1.00
H2       0.25996    1.17598    0.46884   1.00
H2       0.30196    1.18266    0.43507   1.00
C5       0.11782    0.98348    0.37430   1.00
H2       0.10255    0.95819    0.38760   1.00
H2       0.13910    0.97094    0.35331   1.00
C5       0.08806    1.00939    0.35283   1.00
C5       0.07877    0.99271    0.31216   1.00
H2       0.09985    1.03947    0.34950   1.00
O3       0.27000    1.06761    0.47891   1.00
C4       0.22900    0.99972    0.50032   1.00
C3c      0.20757    0.98868    0.46718   1.00
H1       0.22275    0.97983    0.44099   1.00
C3d      0.20865    1.01062    0.53433   1.00
C3       0.16646    0.98938    0.46705   1.00
O2       0.14752    0.97368    0.43531   1.00
C3       0.16773    1.01207    0.53406   1.00
H1       0.15343    1.02194    0.56038   1.00
C2       0.14561    1.00140    0.50067   1.00
C5       0.27121    1.09561    0.50911   1.00
H2       0.30162    1.10467    0.51627   1.00
H2       0.25734    1.08418    0.53626   1.00
C5       0.24871    1.13139    0.49522   1.00
H2       0.21863    1.12214    0.48702   1.00
H2       0.26302    1.14277    0.46832   1.00
C5       0.24738    1.16301    0.52710   1.00
H2       0.27732    1.17219    0.53562   1.00
H2       0.23189    1.15212    0.55348   1.00
C5       0.22555    1.19923    0.51193   1.00
C5       0.23895    0.99298    0.59091   1.00
C5       0.13930    1.00334    0.40782   1.00
H2       0.25912    0.97269    0.57559   1.00
H2       0.21288    0.97622    0.60089   1.00
H2       0.16700    1.01671    0.39714   1.00
H2       0.12105    1.02732    0.42038   1.00
H2       0.05970    1.01066    0.36892   1.00
H2       0.30753    0.96698    0.63253   1.00
H2       0.26237    0.95336    0.65680   1.00
C2       0.35395    1.00243    0.50113   1.00
C3       0.33403    0.96747    0.50996   1.00
O2       0.35326    0.93711    0.52812   1.00
C3       0.33174    1.03550    0.49027   1.00
H1       0.34615    1.06241    0.48236   1.00
C3a      0.29287    0.96658    0.50876   1.00
H1       0.27798    0.94025    0.51776   1.00
C3b      0.29078    1.03488    0.49032   1.00
C4       0.27100    1.00028    0.49968   1.00
O3       0.22833    1.02456    0.56672   1.00
C5       0.36280    0.90788    0.50074   1.00
H2       0.33609    0.89601    0.48633   1.00
C5       0.38326    0.87529    0.52306   1.00
H2       0.38274    0.91948    0.47780   1.00
H2       0.36068    0.85724    0.53790   1.00
H2       0.40093    0.88918    0.54654   1.00
C5       0.40918    0.84967    0.49680   1.00
H2       0.39176    0.83856    0.47181   1.00
C5       0.42547    0.81466    0.51977   1.00
H2       0.43493    0.86631    0.48561   1.00
C5       0.25983    1.00974    0.62643   1.00
H2       0.23785    1.02450    0.64529   1.00
H2       0.28048    1.03268    0.61622   1.00
C5       0.28200    0.97814    0.64941   1.00
C5       0.29775    0.99533    0.68781   1.00
H2       0.05714    0.96762    0.31515   1.00
C5       0.06088    1.02494    0.28649   1.00
H2       0.10677    0.98159    0.29809   1.00
C5       0.21663    1.22681    0.54625   1.00
H2       0.24449    1.21505    0.48963   1.00
H2       0.19707    1.18981    0.49759   1.00
C5       0.44503    0.78590    0.49134   1.00
H2       0.44789    0.82537    0.54187   1.00
H2       0.40063    0.79934    0.53571   1.00
H2       0.31398    1.02365    0.68143   1.00
H2       0.27239    1.00149    0.70842   1.00
C5       0.32583    0.96596    0.70696   1.00
H2       0.04884    1.04914    0.30586   1.00
H2       0.08429    1.03741    0.26643   1.00
H2       0.03626    1.01212    0.26816   1.00
H2       0.23180    1.21565    0.57367   1.00
H2       0.22771    1.25734    0.53911   1.00
H2       0.18379    1.22785    0.55140   1.00
H2       0.46111    0.80288    0.46770   1.00
H2       0.46664    0.76686    0.50796   1.00
H2       0.42181    0.76666    0.47732   1.00
H2       0.35693    0.97223    0.69698   1.00
H2       0.32402    0.96884    0.74004   1.00
H2       0.31734    0.93507    0.69804   1.00
C5       0.88218    0.98348    0.62570   1.00
H2       0.89745    0.95819    0.61240   1.00
H2       0.86090    0.97094    0.64669   1.00
C5       0.91194    1.00939    0.64717   1.00
C5       0.92123    0.99271    0.68784   1.00
H2       0.90015    1.03947    0.65050   1.00
O3       0.73000    1.06761    0.52109   1.00
C4       0.77100    0.99972    0.49968   1.00
C3c      0.79243    0.98868    0.53282   1.00
H1       0.77725    0.97983    0.55901   1.00
C3d      0.79135    1.01062    0.46567   1.00
C3       0.83354    0.98938    0.53295   1.00
O2       0.85248    0.97368    0.56469   1.00
C3       0.83227    1.01207    0.46594   1.00
H1       0.84657    1.02194    0.43962   1.00
C2       0.85439    1.00140    0.49933   1.00
C5       0.72879    1.09561    0.49089   1.00
H2       0.69838    1.10467    0.48373   1.00
H2       0.74266    1.08418    0.46374   1.00
C5       0.75129    1.13139    0.50478   1.00
H2       0.78137    1.12214    0.51298   1.00
H2       0.73698    1.14277    0.53168   1.00
C5       0.75262    1.16301    0.47290   1.00
H2       0.72268    1.17219    0.46438   1.00
H2       0.76811    1.15212    0.44652   1.00
C5       0.77445    1.19923    0.48807   1.00
C5       0.76105    0.99298    0.40909   1.00
C5       0.86070    1.00334    0.59218   1.00
H2       0.74088    0.97269    0.42441   1.00
H2       0.78712    0.97622    0.39911   1.00
H2       0.83300    1.01671    0.60286   1.00
H2       0.87895    1.02732    0.57962   1.00
H2       0.94030    1.01066    0.63108   1.00
H2       0.69247    0.96698    0.36747   1.00
H2       0.73763    0.95336    0.34320   1.00
C2       0.64605    1.00243    0.49887   1.00
C3       0.66597    0.96747    0.49004   1.00
O2       0.64674    0.93711    0.47188   1.00
C3       0.66826    1.03550    0.50973   1.00
H1       0.65385    1.06241    0.51764   1.00
C3a      0.70713    0.96658    0.49124   1.00
H1       0.72202    0.94025    0.48224   1.00
C3b      0.70922    1.03488    0.50968   1.00
C4       0.72900    1.00028    0.50032   1.00
O3       0.77167    1.02456    0.43328   1.00
C5       0.63720    0.90788    0.49926   1.00
H2       0.66391    0.89601    0.51367   1.00
C5       0.61674    0.87529    0.47694   1.00
H2       0.61726    0.91948    0.52220   1.00
H2       0.63932    0.85724    0.46210   1.00
H2       0.59907    0.88918    0.45346   1.00
C5       0.59082    0.84967    0.50320   1.00
H2       0.60824    0.83856    0.52819   1.00
C5       0.57453    0.81466    0.48023   1.00
H2       0.56507    0.86631    0.51439   1.00
C5       0.74017    1.00974    0.37357   1.00
H2       0.76215    1.02450    0.35471   1.00
H2       0.71952    1.03268    0.38378   1.00
C5       0.71800    0.97814    0.35059   1.00
C5       0.70225    0.99533    0.31219   1.00
H2       0.94286    0.96762    0.68485   1.00
C5       0.93912    1.02494    0.71351   1.00
H2       0.89323    0.98159    0.70191   1.00
C5       0.78337    1.22681    0.45375   1.00
H2       0.75551    1.21505    0.51037   1.00
H2       0.80293    1.18981    0.50241   1.00
C5       0.55497    0.78590    0.50866   1.00
H2       0.55211    0.82537    0.45813   1.00
H2       0.59937    0.79934    0.46429   1.00
H2       0.68602    1.02365    0.31857   1.00
H2       0.72761    1.00149    0.29158   1.00
C5       0.67417    0.96596    0.29304   1.00
H2       0.95116    1.04914    0.69414   1.00
H2       0.91571    1.03741    0.73357   1.00
H2       0.96374    1.01212    0.73184   1.00
H2       0.76820    1.21565    0.42633   1.00
H2       0.77229    1.25734    0.46089   1.00
H2       0.81621    1.22785    0.44860   1.00
H2       0.53889    0.80288    0.53230   1.00
H2       0.53336    0.76686    0.49204   1.00
H2       0.57819    0.76666    0.52268   1.00
H2       0.64307    0.97223    0.30302   1.00
H2       0.67598    0.96884    0.25996   1.00
H2       0.68266    0.93507    0.30196   1.00
C5       0.37430    0.61782    0.48348   1.00
H2       0.38760    0.60255    0.45819   1.00
H2       0.35331    0.63910    0.47094   1.00
C5       0.35283    0.58806    0.50939   1.00
C5       0.31216    0.57877    0.49271   1.00
H2       0.34950    0.59985    0.53947   1.00
O3       0.47891    0.77000    0.56761   1.00
C4       0.50032    0.72900    0.49972   1.00
C3c      0.46718    0.70757    0.48868   1.00
H1       0.44099    0.72275    0.47983   1.00
C3d      0.53433    0.70865    0.51062   1.00
C3       0.46705    0.66646    0.48938   1.00
O2       0.43531    0.64752    0.47368   1.00
C3       0.53406    0.66773    0.51207   1.00
H1       0.56038    0.65343    0.52194   1.00
C2       0.50067    0.64561    0.50140   1.00
C5       0.50911    0.77121    0.59561   1.00
H2       0.51627    0.80162    0.60467   1.00
H2       0.53626    0.75734    0.58418   1.00
C5       0.49522    0.74871    0.63139   1.00
H2       0.48702    0.71863    0.62214   1.00
H2       0.46832    0.76302    0.64277   1.00
C5       0.52710    0.74738    0.66301   1.00
H2       0.53562    0.77732    0.67219   1.00
H2       0.55348    0.73189    0.65212   1.00
C5       0.51193    0.72555    0.69923   1.00
C5       0.59091    0.73895    0.49298   1.00
C5       0.40782    0.63930    0.50334   1.00
H2       0.57559    0.75912    0.47269   1.00
H2       0.60089    0.71288    0.47622   1.00
H2       0.39714    0.66700    0.51671   1.00
H2       0.42038    0.62105    0.52732   1.00
H2       0.36892    0.55970    0.51066   1.00
H2       0.63253    0.80753    0.46698   1.00
H2       0.65680    0.76237    0.45336   1.00
C2       0.50113    0.85395    0.50243   1.00
C3       0.50996    0.83403    0.46747   1.00
O2       0.52812    0.85326    0.43711   1.00
C3       0.49027    0.83174    0.53550   1.00
H1       0.48236    0.84615    0.56241   1.00
C3a      0.50876    0.79287    0.46658   1.00
H1       0.51776    0.77798    0.44025   1.00
C3b      0.49032    0.79078    0.53488   1.00
C4       0.49968    0.77100    0.50028   1.00
O3       0.56672    0.72833    0.52456   1.00
C5       0.50074    0.86280    0.40788   1.00
H2       0.48633    0.83609    0.39601   1.00
C5       0.52306    0.88326    0.37529   1.00
H2       0.47780    0.88274    0.41948   1.00
H2       0.53790    0.86068    0.35724   1.00
H2       0.54654    0.90093    0.38918   1.00
C5       0.49680    0.90918    0.34967   1.00
H2       0.47181    0.89176    0.33856   1.00
C5       0.51977    0.92547    0.31466   1.00
H2       0.48561    0.93493    0.36631   1.00
C5       0.62643    0.75983    0.50974   1.00
H2       0.64529    0.73785    0.52450   1.00
H2       0.61622    0.78048    0.53268   1.00
C5       0.64941    0.78200    0.47814   1.00
C5       0.68781    0.79775    0.49533   1.00
H2       0.31515    0.55714    0.46762   1.00
C5       0.28649    0.56088    0.52494   1.00
H2       0.29809    0.60677    0.48159   1.00
C5       0.54625    0.71663    0.72681   1.00
H2       0.48963    0.74449    0.71505   1.00
H2       0.49759    0.69707    0.68981   1.00
C5       0.49134    0.94503    0.28590   1.00
H2       0.54187    0.94789    0.32537   1.00
H2       0.53571    0.90063    0.29934   1.00
H2       0.68143    0.81398    0.52365   1.00
H2       0.70842    0.77239    0.50149   1.00
C5       0.70696    0.82583    0.46596   1.00
H2       0.30586    0.54884    0.54914   1.00
H2       0.26643    0.58429    0.53741   1.00
H2       0.26816    0.53626    0.51212   1.00
H2       0.57367    0.73180    0.71565   1.00
H2       0.53911    0.72771    0.75734   1.00
H2       0.55140    0.68379    0.72785   1.00
H2       0.46770    0.96111    0.30288   1.00
H2       0.50796    0.96664    0.26686   1.00
H2       0.47732    0.92181    0.26666   1.00
H2       0.69698    0.85693    0.47223   1.00
H2       0.74004    0.82402    0.46884   1.00
H2       0.69804    0.81734    0.43507   1.00
C5       0.48348    0.87430    0.11782   1.00
H2       0.45819    0.88760    0.10255   1.00
H2       0.47094    0.85331    0.13910   1.00
C5       0.50939    0.85283    0.08806   1.00
C5       0.49271    0.81216    0.07877   1.00
H2       0.53947    0.84950    0.09985   1.00
O3       0.56761    0.97891    0.27000   1.00
C4       0.49972    1.00032    0.22900   1.00
C3c      0.48868    0.96718    0.20757   1.00
H1       0.47983    0.94099    0.22275   1.00
C3d      0.51062    1.03433    0.20865   1.00
C3       0.48938    0.96705    0.16646   1.00
O2       0.47368    0.93531    0.14752   1.00
C3       0.51207    1.03406    0.16773   1.00
H1       0.52194    1.06038    0.15343   1.00
C2       0.50140    1.00067    0.14561   1.00
C5       0.59561    1.00911    0.27121   1.00
H2       0.60467    1.01627    0.30162   1.00
H2       0.58418    1.03626    0.25734   1.00
C5       0.63139    0.99522    0.24871   1.00
H2       0.62214    0.98702    0.21863   1.00
H2       0.64277    0.96832    0.26302   1.00
C5       0.66301    1.02710    0.24738   1.00
H2       0.67219    1.03562    0.27732   1.00
H2       0.65212    1.05348    0.23189   1.00
C5       0.69923    1.01193    0.22555   1.00
C5       0.49298    1.09091    0.23895   1.00
C5       0.50334    0.90782    0.13930   1.00
H2       0.47269    1.07559    0.25912   1.00
H2       0.47622    1.10089    0.21288   1.00
H2       0.51671    0.89714    0.16700   1.00
H2       0.52732    0.92038    0.12105   1.00
H2       0.51066    0.86892    0.05970   1.00
H2       0.46698    1.13253    0.30753   1.00
H2       0.45336    1.15680    0.26237   1.00
C2       0.50243    1.00113    0.35395   1.00
C3       0.46747    1.00996    0.33403   1.00
O2       0.43711    1.02812    0.35326   1.00
C3       0.53550    0.99027    0.33174   1.00
H1       0.56241    0.98236    0.34615   1.00
C3a      0.46658    1.00876    0.29287   1.00
H1       0.44025    1.01776    0.27798   1.00
C3b      0.53488    0.99032    0.29078   1.00
C4       0.50028    0.99968    0.27100   1.00
O3       0.52456    1.06672    0.22833   1.00
C5       0.40788    1.00074    0.36280   1.00
H2       0.39601    0.98633    0.33609   1.00
C5       0.37529    1.02306    0.38326   1.00
H2       0.41948    0.97780    0.38274   1.00
H2       0.35724    1.03790    0.36068   1.00
H2       0.38918    1.04654    0.40093   1.00
C5       0.34967    0.99680    0.40918   1.00
H2       0.33856    0.97181    0.39176   1.00
C5       0.31466    1.01977    0.42547   1.00
H2       0.36631    0.98561    0.43493   1.00
C5       0.50974    1.12643    0.25983   1.00
H2       0.52450    1.14529    0.23785   1.00
H2       0.53268    1.11622    0.28048   1.00
C5       0.47814    1.14941    0.28200   1.00
C5       0.49533    1.18781    0.29775   1.00
H2       0.46762    0.81515    0.05714   1.00
C5       0.52494    0.78649    0.06088   1.00
H2       0.48159    0.79809    0.10677   1.00
C5       0.72681    1.04625    0.21663   1.00
H2       0.71505    0.98963    0.24449   1.00
H2       0.68981    0.99759    0.19707   1.00
C5       0.28590    0.99134    0.44503   1.00
H2       0.32537    1.04187    0.44789   1.00
H2       0.29934    1.03571    0.40063   1.00
H2       0.52365    1.18143    0.31398   1.00
H2       0.50149    1.20842    0.27239   1.00
C5       0.46596    1.20696    0.32583   1.00
H2       0.54914    0.80586    0.04884   1.00
H2       0.53741    0.76643    0.08429   1.00
H2       0.51212    0.76816    0.03626   1.00
H2       0.71565    1.07367    0.23180   1.00
H2       0.75734    1.03911    0.22771   1.00
H2       0.72785    1.05140    0.18379   1.00
H2       0.30288    0.96770    0.46111   1.00
H2       0.26686    1.00796    0.46664   1.00
H2       0.26666    0.97732    0.42181   1.00
H2       0.47223    1.19698    0.35693   1.00
H2       0.46884    1.24004    0.32402   1.00
H2       0.43507    1.19804    0.31734   1.00
C5       0.98348    0.62570    0.88218   1.00
H2       0.95819    0.61240    0.89745   1.00
H2       0.97094    0.64669    0.86090   1.00
C5       1.00939    0.64717    0.91194   1.00
C5       0.99271    0.68784    0.92123   1.00
H2       1.03947    0.65050    0.90015   1.00
O3       1.06761    0.52109    0.73000   1.00
C4       0.99972    0.49968    0.77100   1.00
C3c      0.98868    0.53282    0.79243   1.00
H1       0.97983    0.55901    0.77725   1.00
C3d      1.01062    0.46567    0.79135   1.00
C3       0.98938    0.53295    0.83354   1.00
O2       0.97368    0.56469    0.85248   1.00
C3       1.01207    0.46594    0.83227   1.00
H1       1.02194    0.43962    0.84657   1.00
C2       1.00140    0.49933    0.85439   1.00
C5       1.09561    0.49089    0.72879   1.00
H2       1.10467    0.48373    0.69838   1.00
H2       1.08418    0.46374    0.74266   1.00
C5       1.13139    0.50478    0.75129   1.00
H2       1.12214    0.51298    0.78137   1.00
H2       1.14277    0.53168    0.73698   1.00
C5       1.16301    0.47290    0.75262   1.00
H2       1.17219    0.46438    0.72268   1.00
H2       1.15212    0.44652    0.76811   1.00
C5       1.19923    0.48807    0.77445   1.00
C5       0.99298    0.40909    0.76105   1.00
C5       1.00334    0.59218    0.86070   1.00
H2       0.97269    0.42441    0.74088   1.00
H2       0.97622    0.39911    0.78712   1.00
H2       1.01671    0.60286    0.83300   1.00
H2       1.02732    0.57962    0.87895   1.00
H2       1.01066    0.63108    0.94030   1.00
H2       0.96698    0.36747    0.69247   1.00
H2       0.95336    0.34320    0.73763   1.00
C2       1.00243    0.49887    0.64605   1.00
C3       0.96747    0.49004    0.66597   1.00
O2       0.93711    0.47188    0.64674   1.00
C3       1.03550    0.50973    0.66826   1.00
H1       1.06241    0.51764    0.65385   1.00
C3a      0.96658    0.49124    0.70713   1.00
H1       0.94025    0.48224    0.72202   1.00
C3b      1.03488    0.50968    0.70922   1.00
C4       1.00028    0.50032    0.72900   1.00
O3       1.02456    0.43328    0.77167   1.00
C5       0.90788    0.49926    0.63720   1.00
H2       0.89601    0.51367    0.66391   1.00
C5       0.87529    0.47694    0.61674   1.00
H2       0.91948    0.52220    0.61726   1.00
H2       0.85724    0.46210    0.63932   1.00
H2       0.88918    0.45346    0.59907   1.00
C5       0.84967    0.50320    0.59082   1.00
H2       0.83856    0.52819    0.60824   1.00
C5       0.81466    0.48023    0.57453   1.00
H2       0.86631    0.51439    0.56507   1.00
C5       1.00974    0.37357    0.74017   1.00
H2       1.02450    0.35471    0.76215   1.00
H2       1.03268    0.38378    0.71952   1.00
C5       0.97814    0.35059    0.71800   1.00
C5       0.99533    0.31219    0.70225   1.00
H2       0.96762    0.68485    0.94286   1.00
C5       1.02494    0.71351    0.93912   1.00
H2       0.98159    0.70191    0.89323   1.00
C5       1.22681    0.45375    0.78337   1.00
H2       1.21505    0.51037    0.75551   1.00
H2       1.18981    0.50241    0.80293   1.00
C5       0.78590    0.50866    0.55497   1.00
H2       0.82537    0.45813    0.55211   1.00
H2       0.79934    0.46429    0.59937   1.00
H2       1.02365    0.31857    0.68602   1.00
H2       1.00149    0.29158    0.72761   1.00
C5       0.96596    0.29304    0.67417   1.00
H2       1.04914    0.69414    0.95116   1.00
H2       1.03741    0.73357    0.91571   1.00
H2       1.01212    0.73184    0.96374   1.00
H2       1.21565    0.42633    0.76820   1.00
H2       1.25734    0.46089    0.77229   1.00
H2       1.22785    0.44860    0.81621   1.00
H2       0.80288    0.53230    0.53889   1.00
H2       0.76686    0.49204    0.53336   1.00
H2       0.76666    0.52268    0.57819   1.00
H2       0.97223    0.30302    0.64307   1.00
H2       0.96884    0.25996    0.67598   1.00
H2       0.93507    0.30196    0.68266   1.00
C5       1.12570    0.88218    0.48348   1.00
H2       1.11240    0.89745    0.45819   1.00
H2       1.14669    0.86090    0.47094   1.00
C5       1.14717    0.91194    0.50939   1.00
C5       1.18784    0.92123    0.49271   1.00
H2       1.15050    0.90015    0.53947   1.00
O3       1.02109    0.73000    0.56761   1.00
C4       0.99968    0.77100    0.49972   1.00
C3c      1.03282    0.79243    0.48868   1.00
H1       1.05901    0.77725    0.47983   1.00
C3d      0.96567    0.79135    0.51062   1.00
C3       1.03295    0.83354    0.48938   1.00
O2       1.06469    0.85248    0.47368   1.00
C3       0.96594    0.83227    0.51207   1.00
H1       0.93962    0.84657    0.52194   1.00
C2       0.99933    0.85439    0.50140   1.00
C5       0.99089    0.72879    0.59561   1.00
H2       0.98373    0.69838    0.60467   1.00
H2       0.96374    0.74266    0.58418   1.00
C5       1.00478    0.75129    0.63139   1.00
H2       1.01298    0.78137    0.62214   1.00
H2       1.03168    0.73698    0.64277   1.00
C5       0.97290    0.75262    0.66301   1.00
H2       0.96438    0.72268    0.67219   1.00
H2       0.94652    0.76811    0.65212   1.00
C5       0.98807    0.77445    0.69923   1.00
C5       0.90909    0.76105    0.49298   1.00
C5       1.09218    0.86070    0.50334   1.00
H2       0.92441    0.74088    0.47269   1.00
H2       0.89911    0.78712    0.47622   1.00
H2       1.10286    0.83300    0.51671   1.00
H2       1.07962    0.87895    0.52732   1.00
H2       1.13108    0.94030    0.51066   1.00
H2       0.86747    0.69247    0.46698   1.00
H2       0.84320    0.73763    0.45336   1.00
C2       0.99887    0.64605    0.50243   1.00
C3       0.99004    0.66597    0.46747   1.00
O2       0.97188    0.64674    0.43711   1.00
C3       1.00973    0.66826    0.53550   1.00
H1       1.01764    0.65385    0.56241   1.00
C3a      0.99124    0.70713    0.46658   1.00
H1       0.98224    0.72202    0.44025   1.00
C3b      1.00968    0.70922    0.53488   1.00
C4       1.00032    0.72900    0.50028   1.00
O3       0.93328    0.77167    0.52456   1.00
C5       0.99926    0.63720    0.40788   1.00
H2       1.01367    0.66391    0.39601   1.00
C5       0.97694    0.61674    0.37529   1.00
H2       1.02220    0.61726    0.41948   1.00
H2       0.96210    0.63932    0.35724   1.00
H2       0.95346    0.59907    0.38918   1.00
C5       1.00320    0.59082    0.34967   1.00
H2       1.02819    0.60824    0.33856   1.00
C5       0.98023    0.57453    0.31466   1.00
H2       1.01439    0.56507    0.36631   1.00
C5       0.87357    0.74017    0.50974   1.00
H2       0.85471    0.76215    0.52450   1.00
H2       0.88378    0.71952    0.53268   1.00
C5       0.85059    0.71800    0.47814   1.00
C5       0.81219    0.70225    0.49533   1.00
H2       1.18485    0.94286    0.46762   1.00
C5       1.21351    0.93912    0.52494   1.00
H2       1.20191    0.89323    0.48159   1.00
C5       0.95375    0.78337    0.72681   1.00
H2       1.01037    0.75551    0.71505   1.00
H2       1.00241    0.80293    0.68981   1.00
C5       1.00866    0.55497    0.28590   1.00
H2       0.95813    0.55211    0.32537   1.00
H2       0.96429    0.59937    0.29934   1.00
H2       0.81857    0.68602    0.52365   1.00
H2       0.79158    0.72761    0.50149   1.00
C5       0.79304    0.67417    0.46596   1.00
H2       1.19414    0.95116    0.54914   1.00
H2       1.23357    0.91571    0.53741   1.00
H2       1.23184    0.96374    0.51212   1.00
H2       0.92633    0.76820    0.71565   1.00
H2       0.96089    0.77229    0.75734   1.00
H2       0.94860    0.81621    0.72785   1.00
H2       1.03230    0.53889    0.30288   1.00
H2       0.99204    0.53336    0.26686   1.00
H2       1.02268    0.57819    0.26666   1.00
H2       0.80302    0.64307    0.47223   1.00
H2       0.75996    0.67598    0.46884   1.00
H2       0.80196    0.68266    0.43507   1.00
C5       0.61782    0.48348    0.37430   1.00
H2       0.60255    0.45819    0.38760   1.00
H2       0.63910    0.47094    0.35331   1.00
C5       0.58806    0.50939    0.35283   1.00
C5       0.57877    0.49271    0.31216   1.00
H2       0.59985    0.53947    0.34950   1.00
O3       0.77000    0.56761    0.47891   1.00
C4       0.72900    0.49972    0.50032   1.00
C3c      0.70757    0.48868    0.46718   1.00
H1       0.72275    0.47983    0.44099   1.00
C3d      0.70865    0.51062    0.53433   1.00
C3       0.66646    0.48938    0.46705   1.00
O2       0.64752    0.47368    0.43531   1.00
C3       0.66773    0.51207    0.53406   1.00
H1       0.65343    0.52194    0.56038   1.00
C2       0.64561    0.50140    0.50067   1.00
C5       0.77121    0.59561    0.50911   1.00
H2       0.80162    0.60467    0.51627   1.00
H2       0.75734    0.58418    0.53626   1.00
C5       0.74871    0.63139    0.49522   1.00
H2       0.71863    0.62214    0.48702   1.00
H2       0.76302    0.64277    0.46832   1.00
C5       0.74738    0.66301    0.52710   1.00
H2       0.77732    0.67219    0.53562   1.00
H2       0.73189    0.65212    0.55348   1.00
C5       0.72555    0.69923    0.51193   1.00
C5       0.73895    0.49298    0.59091   1.00
C5       0.63930    0.50334    0.40782   1.00
H2       0.75912    0.47269    0.57559   1.00
H2       0.71288    0.47622    0.60089   1.00
H2       0.66700    0.51671    0.39714   1.00
H2       0.62105    0.52732    0.42038   1.00
H2       0.55970    0.51066    0.36892   1.00
H2       0.80753    0.46698    0.63253   1.00
H2       0.76237    0.45336    0.65680   1.00
C2       0.85395    0.50243    0.50113   1.00
C3       0.83403    0.46747    0.50996   1.00
O2       0.85326    0.43711    0.52812   1.00
C3       0.83174    0.53550    0.49027   1.00
H1       0.84615    0.56241    0.48236   1.00
C3a      0.79287    0.46658    0.50876   1.00
H1       0.77798    0.44025    0.51776   1.00
C3b      0.79078    0.53488    0.49032   1.00
C4       0.77100    0.50028    0.49968   1.00
O3       0.72833    0.52456    0.56672   1.00
C5       0.86280    0.40788    0.50074   1.00
H2       0.83609    0.39601    0.48633   1.00
C5       0.88326    0.37529    0.52306   1.00
H2       0.88274    0.41948    0.47780   1.00
H2       0.86068    0.35724    0.53790   1.00
H2       0.90093    0.38918    0.54654   1.00
C5       0.90918    0.34967    0.49680   1.00
H2       0.89176    0.33856    0.47181   1.00
C5       0.92547    0.31466    0.51977   1.00
H2       0.93493    0.36631    0.48561   1.00
C5       0.75983    0.50974    0.62643   1.00
H2       0.73785    0.52450    0.64529   1.00
H2       0.78048    0.53268    0.61622   1.00
C5       0.78200    0.47814    0.64941   1.00
C5       0.79775    0.49533    0.68781   1.00
H2       0.55714    0.46762    0.31515   1.00
C5       0.56088    0.52494    0.28649   1.00
H2       0.60677    0.48159    0.29809   1.00
C5       0.71663    0.72681    0.54625   1.00
H2       0.74449    0.71505    0.48963   1.00
H2       0.69707    0.68981    0.49759   1.00
C5       0.94503    0.28590    0.49134   1.00
H2       0.94789    0.32537    0.54187   1.00
H2       0.90063    0.29934    0.53571   1.00
H2       0.81398    0.52365    0.68143   1.00
H2       0.77239    0.50149    0.70842   1.00
C5       0.82583    0.46596    0.70696   1.00
H2       0.54884    0.54914    0.30586   1.00
H2       0.58429    0.53741    0.26643   1.00
H2       0.53626    0.51212    0.26816   1.00
H2       0.73180    0.71565    0.57367   1.00
H2       0.72771    0.75734    0.53911   1.00
H2       0.68379    0.72785    0.55140   1.00
H2       0.96111    0.30288    0.46770   1.00
H2       0.96664    0.26686    0.50796   1.00
H2       0.92181    0.26666    0.47732   1.00
H2       0.85693    0.47223    0.69698   1.00
H2       0.82402    0.46884    0.74004   1.00
H2       0.81734    0.43507    0.69804   1.00
C5       1.38218    0.48348    0.62570   1.00
H2       1.39745    0.45819    0.61240   1.00
H2       1.36090    0.47094    0.64669   1.00
C5       1.41194    0.50939    0.64717   1.00
C5       1.42123    0.49271    0.68784   1.00
H2       1.40015    0.53947    0.65050   1.00
O3       1.23000    0.56761    0.52109   1.00
C4       1.27100    0.49972    0.49968   1.00
C3c      1.29243    0.48868    0.53282   1.00
H1       1.27725    0.47983    0.55901   1.00
C3d      1.29135    0.51062    0.46567   1.00
C3       1.33354    0.48938    0.53295   1.00
O2       1.35248    0.47368    0.56469   1.00
C3       1.33227    0.51207    0.46594   1.00
H1       1.34657    0.52194    0.43962   1.00
C2       1.35439    0.50140    0.49933   1.00
C5       1.22879    0.59561    0.49089   1.00
H2       1.19838    0.60467    0.48373   1.00
H2       1.24266    0.58418    0.46374   1.00
C5       1.25129    0.63139    0.50478   1.00
H2       1.28137    0.62214    0.51298   1.00
H2       1.23698    0.64277    0.53168   1.00
C5       1.25262    0.66301    0.47290   1.00
H2       1.22268    0.67219    0.46438   1.00
H2       1.26811    0.65212    0.44652   1.00
C5       1.27445    0.69923    0.48807   1.00
C5       1.26105    0.49298    0.40909   1.00
C5       1.36070    0.50334    0.59218   1.00
H2       1.24088    0.47269    0.42441   1.00
H2       1.28712    0.47622    0.39911   1.00
H2       1.33300    0.51671    0.60286   1.00
H2       1.37895    0.52732    0.57962   1.00
H2       1.44030    0.51066    0.63108   1.00
H2       1.19247    0.46698    0.36747   1.00
H2       1.23763    0.45336    0.34320   1.00
C2       1.14605    0.50243    0.49887   1.00
C3       1.16597    0.46747    0.49004   1.00
O2       1.14674    0.43711    0.47188   1.00
C3       1.16826    0.53550    0.50973   1.00
H1       1.15385    0.56241    0.51764   1.00
C3a      1.20713    0.46658    0.49124   1.00
H1       1.22202    0.44025    0.48224   1.00
C3b      1.20922    0.53488    0.50968   1.00
C4       1.22900    0.50028    0.50032   1.00
O3       1.27167    0.52456    0.43328   1.00
C5       1.13720    0.40788    0.49926   1.00
H2       1.16391    0.39601    0.51367   1.00
C5       1.11674    0.37529    0.47694   1.00
H2       1.11726    0.41948    0.52220   1.00
H2       1.13932    0.35724    0.46210   1.00
H2       1.09907    0.38918    0.45346   1.00
C5       1.09082    0.34967    0.50320   1.00
H2       1.10824    0.33856    0.52819   1.00
C5       1.07453    0.31466    0.48023   1.00
H2       1.06507    0.36631    0.51439   1.00
C5       1.24017    0.50974    0.37357   1.00
H2       1.26215    0.52450    0.35471   1.00
H2       1.21952    0.53268    0.38378   1.00
C5       1.21800    0.47814    0.35059   1.00
C5       1.20225    0.49533    0.31219   1.00
H2       1.44286    0.46762    0.68485   1.00
C5       1.43912    0.52494    0.71351   1.00
H2       1.39323    0.48159    0.70191   1.00
C5       1.28337    0.72681    0.45375   1.00
H2       1.25551    0.71505    0.51037   1.00
H2       1.30293    0.68981    0.50241   1.00
C5       1.05497    0.28590    0.50866   1.00
H2       1.05211    0.32537    0.45813   1.00
H2       1.09937    0.29934    0.46429   1.00
H2       1.18602    0.52365    0.31857   1.00
H2       1.22761    0.50149    0.29158   1.00
C5       1.17417    0.46596    0.29304   1.00
H2       1.45116    0.54914    0.69414   1.00
H2       1.41571    0.53741    0.73357   1.00
H2       1.46374    0.51212    0.73184   1.00
H2       1.26820    0.71565    0.42633   1.00
H2       1.27229    0.75734    0.46089   1.00
H2       1.31621    0.72785    0.44860   1.00
H2       1.03889    0.30288    0.53230   1.00
H2       1.03336    0.26686    0.49204   1.00
H2       1.07819    0.26666    0.52268   1.00
H2       1.14307    0.47223    0.30302   1.00
H2       1.17598    0.46884    0.25996   1.00
H2       1.18266    0.43507    0.30196   1.00
C5       0.87430    0.11782    0.48348   1.00
H2       0.88760    0.10255    0.45819   1.00
H2       0.85331    0.13910    0.47094   1.00
C5       0.85283    0.08806    0.50939   1.00
C5       0.81216    0.07877    0.49271   1.00
H2       0.84950    0.09985    0.53947   1.00
O3       0.97891    0.27000    0.56761   1.00
C4       1.00032    0.22900    0.49972   1.00
C3c      0.96718    0.20757    0.48868   1.00
H1       0.94099    0.22275    0.47983   1.00
C3d      1.03433    0.20865    0.51062   1.00
C3       0.96705    0.16646    0.48938   1.00
O2       0.93531    0.14752    0.47368   1.00
C3       1.03406    0.16773    0.51207   1.00
H1       1.06038    0.15343    0.52194   1.00
C2       1.00067    0.14561    0.50140   1.00
C5       1.00911    0.27121    0.59561   1.00
H2       1.01627    0.30162    0.60467   1.00
H2       1.03626    0.25734    0.58418   1.00
C5       0.99522    0.24871    0.63139   1.00
H2       0.98702    0.21863    0.62214   1.00
H2       0.96832    0.26302    0.64277   1.00
C5       1.02710    0.24738    0.66301   1.00
H2       1.03562    0.27732    0.67219   1.00
H2       1.05348    0.23189    0.65212   1.00
C5       1.01193    0.22555    0.69923   1.00
C5       1.09091    0.23895    0.49298   1.00
C5       0.90782    0.13930    0.50334   1.00
H2       1.07559    0.25912    0.47269   1.00
H2       1.10089    0.21288    0.47622   1.00
H2       0.89714    0.16700    0.51671   1.00
H2       0.92038    0.12105    0.52732   1.00
H2       0.86892    0.05970    0.51066   1.00
H2       1.13253    0.30753    0.46698   1.00
H2       1.15680    0.26237    0.45336   1.00
C2       1.00113    0.35395    0.50243   1.00
C3       1.00996    0.33403    0.46747   1.00
O2       1.02812    0.35326    0.43711   1.00
C3       0.99027    0.33174    0.53550   1.00
H1       0.98236    0.34615    0.56241   1.00
C3a      1.00876    0.29287    0.46658   1.00
H1       1.01776    0.27798    0.44025   1.00
C3b      0.99032    0.29078    0.53488   1.00
C4       0.99968    0.27100    0.50028   1.00
O3       1.06672    0.22833    0.52456   1.00
C5       1.00074    0.36280    0.40788   1.00
H2       0.98633    0.33609    0.39601   1.00
C5       1.02306    0.38326    0.37529   1.00
H2       0.97780    0.38274    0.41948   1.00
H2       1.03790    0.36068    0.35724   1.00
H2       1.04654    0.40093    0.38918   1.00
C5       0.99680    0.40918    0.34967   1.00
H2       0.97181    0.39176    0.33856   1.00
C5       1.01977    0.42547    0.31466   1.00
H2       0.98561    0.43493    0.36631   1.00
C5       1.12643    0.25983    0.50974   1.00
H2       1.14529    0.23785    0.52450   1.00
H2       1.11622    0.28048    0.53268   1.00
C5       1.14941    0.28200    0.47814   1.00
C5       1.18781    0.29775    0.49533   1.00
H2       0.81515    0.05714    0.46762   1.00
C5       0.78649    0.06088    0.52494   1.00
H2       0.79809    0.10677    0.48159   1.00
C5       1.04625    0.21663    0.72681   1.00
H2       0.98963    0.24449    0.71505   1.00
H2       0.99759    0.19707    0.68981   1.00
C5       0.99134    0.44503    0.28590   1.00
H2       1.04187    0.44789    0.32537   1.00
H2       1.03571    0.40063    0.29934   1.00
H2       1.18143    0.31398    0.52365   1.00
H2       1.20842    0.27239    0.50149   1.00
C5       1.20696    0.32583    0.46596   1.00
H2       0.80586    0.04884    0.54914   1.00
H2       0.76643    0.08429    0.53741   1.00
H2       0.76816    0.03626    0.51212   1.00
H2       1.07367    0.23180    0.71565   1.00
H2       1.03911    0.22771    0.75734   1.00
H2       1.05140    0.18379    0.72785   1.00
H2       0.96770    0.46111    0.30288   1.00
H2       1.00796    0.46664    0.26686   1.00
H2       0.97732    0.42181    0.26666   1.00
H2       1.19698    0.35693    0.47223   1.00
H2       1.24004    0.32402    0.46884   1.00
H2       1.19804    0.31734    0.43507   1.00
C5       0.98348    0.37430    0.11782   1.00
H2       0.95819    0.38760    0.10255   1.00
H2       0.97094    0.35331    0.13910   1.00
C5       1.00939    0.35283    0.08806   1.00
C5       0.99271    0.31216    0.07877   1.00
H2       1.03947    0.34950    0.09985   1.00
O3       1.06761    0.47891    0.27000   1.00
C4       0.99972    0.50032    0.22900   1.00
C3c      0.98868    0.46718    0.20757   1.00
H1       0.97983    0.44099    0.22275   1.00
C3d      1.01062    0.53433    0.20865   1.00
C3       0.98938    0.46705    0.16646   1.00
O2       0.97368    0.43531    0.14752   1.00
C3       1.01207    0.53406    0.16773   1.00
H1       1.02194    0.56038    0.15343   1.00
C2       1.00140    0.50067    0.14561   1.00
C5       1.09561    0.50911    0.27121   1.00
H2       1.10467    0.51627    0.30162   1.00
H2       1.08418    0.53626    0.25734   1.00
C5       1.13139    0.49522    0.24871   1.00
H2       1.12214    0.48702    0.21863   1.00
H2       1.14277    0.46832    0.26302   1.00
C5       1.16301    0.52710    0.24738   1.00
H2       1.17219    0.53562    0.27732   1.00
H2       1.15212    0.55348    0.23189   1.00
C5       1.19923    0.51193    0.22555   1.00
C5       0.99298    0.59091    0.23895   1.00
C5       1.00334    0.40782    0.13930   1.00
H2       0.97269    0.57559    0.25912   1.00
H2       0.97622    0.60089    0.21288   1.00
H2       1.01671    0.39714    0.16700   1.00
H2       1.02732    0.42038    0.12105   1.00
H2       1.01066    0.36892    0.05970   1.00
H2       0.96698    0.63253    0.30753   1.00
H2       0.95336    0.65680    0.26237   1.00
C2       1.00243    0.50113    0.35395   1.00
C3       0.96747    0.50996    0.33403   1.00
O2       0.93711    0.52812    0.35326   1.00
C3       1.03550    0.49027    0.33174   1.00
H1       1.06241    0.48236    0.34615   1.00
C3a      0.96658    0.50876    0.29287   1.00
H1       0.94025    0.51776    0.27798   1.00
C3b      1.03488    0.49032    0.29078   1.00
C4       1.00028    0.49968    0.27100   1.00
O3       1.02456    0.56672    0.22833   1.00
C5       0.90788    0.50074    0.36280   1.00
H2       0.89601    0.48633    0.33609   1.00
C5       0.87529    0.52306    0.38326   1.00
H2       0.91948    0.47780    0.38274   1.00
H2       0.85724    0.53790    0.36068   1.00
H2       0.88918    0.54654    0.40093   1.00
C5       0.84967    0.49680    0.40918   1.00
H2       0.83856    0.47181    0.39176   1.00
C5       0.81466    0.51977    0.42547   1.00
H2       0.86631    0.48561    0.43493   1.00
C5       1.00974    0.62643    0.25983   1.00
H2       1.02450    0.64529    0.23785   1.00
H2       1.03268    0.61622    0.28048   1.00
C5       0.97814    0.64941    0.28200   1.00
C5       0.99533    0.68781    0.29775   1.00
H2       0.96762    0.31515    0.05714   1.00
C5       1.02494    0.28649    0.06088   1.00
H2       0.98159    0.29809    0.10677   1.00
C5       1.22681    0.54625    0.21663   1.00
H2       1.21505    0.48963    0.24449   1.00
H2       1.18981    0.49759    0.19707   1.00
C5       0.78590    0.49134    0.44503   1.00
H2       0.82537    0.54187    0.44789   1.00
H2       0.79934    0.53571    0.40063   1.00
H2       1.02365    0.68143    0.31398   1.00
H2       1.00149    0.70842    0.27239   1.00
C5       0.96596    0.70696    0.32583   1.00
H2       1.04914    0.30586    0.04884   1.00
H2       1.03741    0.26643    0.08429   1.00
H2       1.01212    0.26816    0.03626   1.00
H2       1.21565    0.57367    0.23180   1.00
H2       1.25734    0.53911    0.22771   1.00
H2       1.22785    0.55140    0.18379   1.00
H2       0.80288    0.46770    0.46111   1.00
H2       0.76686    0.50796    0.46664   1.00
H2       0.76666    0.47732    0.42181   1.00
H2       0.97223    0.69698    0.35693   1.00
H2       0.96884    0.74004    0.32402   1.00
H2       0.93507    0.69804    0.31734   1.00
