data_IRMOF10_SG202_interpen_Ligand10lp_label_i.

_audit_creation_method             'generated by an auxiliary program of Tobunporous'

_symmetry_space_group_name_H-M     'P 1'
_symmetry_Int_Tables_number        1
_symmetry_cell_setting             triclinic

_cell_length_a                    34.2800
_cell_length_b                    34.2800
_cell_length_c                    34.2800
_cell_angle_alpha                 90.0000
_cell_angle_beta                  90.0000
_cell_angle_gamma                 90.0000

loop_
_atom_site_label
_atom_site_fract_x
_atom_site_fract_y
_atom_site_fract_z
_atom_site_occupancy
O1       0.75000    0.75000    0.75000   1.00
Zn1      0.71720    0.78280    0.78280   1.00
Zn1      0.78280    0.71720    0.78280   1.00
Zn1      0.78280    0.78280    0.71720   1.00
Zn1      0.71720    0.71720    0.71720   1.00
O2       0.72650    0.77350    0.83820   1.00
O2       0.72650    0.83820    0.77350   1.00
O2       0.66180    0.77350    0.77350   1.00
O2       0.77350    0.72650    0.83820   1.00
O2       0.83820    0.72650    0.77350   1.00
O2       0.77350    0.66180    0.77350   1.00
O2       0.77350    0.83820    0.72650   1.00
O2       0.83820    0.77350    0.72650   1.00
O2       0.77350    0.77350    0.66180   1.00
O2       0.66180    0.72650    0.72650   1.00
O2       0.72650    0.66180    0.72650   1.00
O2       0.72650    0.72650    0.66180   1.00
C1       0.75000    0.75000    0.85520   1.00
C1       0.75000    0.85520    0.75000   1.00
C1       0.64480    0.75000    0.75000   1.00
C1       0.85520    0.75000    0.75000   1.00
C1       0.75000    0.64480    0.75000   1.00
C1       0.75000    0.75000    0.64480   1.00
O1       0.25000    0.25000    0.75000   1.00
Zn1      0.21720    0.28280    0.78280   1.00
Zn1      0.28280    0.21720    0.78280   1.00
Zn1      0.28280    0.28280    0.71720   1.00
Zn1      0.21720    0.21720    0.71720   1.00
O2       0.22650    0.27350    0.83820   1.00
O2       0.22650    0.33820    0.77350   1.00
O2       0.16180    0.27350    0.77350   1.00
O2       0.27350    0.22650    0.83820   1.00
O2       0.33820    0.22650    0.77350   1.00
O2       0.27350    0.16180    0.77350   1.00
O2       0.27350    0.33820    0.72650   1.00
O2       0.33820    0.27350    0.72650   1.00
O2       0.27350    0.27350    0.66180   1.00
O2       0.16180    0.22650    0.72650   1.00
O2       0.22650    0.16180    0.72650   1.00
O2       0.22650    0.22650    0.66180   1.00
C1       0.25000    0.25000    0.85520   1.00
C1       0.25000    0.35520    0.75000   1.00
C1       0.14480    0.25000    0.75000   1.00
C1       0.35520    0.25000    0.75000   1.00
C1       0.25000    0.14480    0.75000   1.00
C1       0.25000    0.25000    0.64480   1.00
O1       0.25000    0.75000    0.25000   1.00
Zn1      0.21720    0.78280    0.28280   1.00
Zn1      0.28280    0.71720    0.28280   1.00
Zn1      0.28280    0.78280    0.21720   1.00
Zn1      0.21720    0.71720    0.21720   1.00
O2       0.22650    0.77350    0.33820   1.00
O2       0.22650    0.83820    0.27350   1.00
O2       0.16180    0.77350    0.27350   1.00
O2       0.27350    0.72650    0.33820   1.00
O2       0.33820    0.72650    0.27350   1.00
O2       0.27350    0.66180    0.27350   1.00
O2       0.27350    0.83820    0.22650   1.00
O2       0.33820    0.77350    0.22650   1.00
O2       0.27350    0.77350    0.16180   1.00
O2       0.16180    0.72650    0.22650   1.00
O2       0.22650    0.66180    0.22650   1.00
O2       0.22650    0.72650    0.16180   1.00
C1       0.25000    0.75000    0.35520   1.00
C1       0.25000    0.85520    0.25000   1.00
C1       0.14480    0.75000    0.25000   1.00
C1       0.35520    0.75000    0.25000   1.00
C1       0.25000    0.64480    0.25000   1.00
C1       0.25000    0.75000    0.14480   1.00
O1       0.75000    0.25000    0.25000   1.00
Zn1      0.71720    0.28280    0.28280   1.00
Zn1      0.78280    0.21720    0.28280   1.00
Zn1      0.78280    0.28280    0.21720   1.00
Zn1      0.71720    0.21720    0.21720   1.00
O2       0.72650    0.27350    0.33820   1.00
O2       0.72650    0.33820    0.27350   1.00
O2       0.66180    0.27350    0.27350   1.00
O2       0.77350    0.22650    0.33820   1.00
O2       0.83820    0.22650    0.27350   1.00
O2       0.77350    0.16180    0.27350   1.00
O2       0.77350    0.33820    0.22650   1.00
O2       0.83820    0.27350    0.22650   1.00
O2       0.77350    0.27350    0.16180   1.00
O2       0.66180    0.22650    0.22650   1.00
O2       0.72650    0.16180    0.22650   1.00
O2       0.72650    0.22650    0.16180   1.00
C1       0.75000    0.25000    0.35520   1.00
C1       0.75000    0.35520    0.25000   1.00
C1       0.64480    0.25000    0.25000   1.00
C1       0.85520    0.25000    0.25000   1.00
C1       0.75000    0.14480    0.25000   1.00
C1       0.75000    0.25000    0.14480   1.00
O1       0.25000    0.25000    0.25000   1.00
Zn1      0.28280    0.21720    0.21720   1.00
Zn1      0.21720    0.28280    0.21720   1.00
Zn1      0.21720    0.21720    0.28280   1.00
Zn1      0.28280    0.28280    0.28280   1.00
O2       0.27350    0.22650    0.16180   1.00
O2       0.27350    0.16180    0.22650   1.00
O2       0.33820    0.22650    0.22650   1.00
O2       0.22650    0.27350    0.16180   1.00
O2       0.16180    0.27350    0.22650   1.00
O2       0.22650    0.33820    0.22650   1.00
O2       0.22650    0.16180    0.27350   1.00
O2       0.16180    0.22650    0.27350   1.00
O2       0.22650    0.22650    0.33820   1.00
O2       0.33820    0.27350    0.27350   1.00
O2       0.27350    0.33820    0.27350   1.00
O2       0.27350    0.27350    0.33820   1.00
C1       0.25000    0.25000    0.14480   1.00
C1       0.25000    0.14480    0.25000   1.00
C1       0.35520    0.25000    0.25000   1.00
C1       0.14480    0.25000    0.25000   1.00
C1       0.25000    0.35520    0.25000   1.00
C1       0.25000    0.25000    0.35520   1.00
O1       0.75000    0.75000    0.25000   1.00
Zn1      0.78280    0.71720    0.21720   1.00
Zn1      0.71720    0.78280    0.21720   1.00
Zn1      0.71720    0.71720    0.28280   1.00
Zn1      0.78280    0.78280    0.28280   1.00
O2       0.77350    0.72650    0.16180   1.00
O2       0.77350    0.66180    0.22650   1.00
O2       0.83820    0.72650    0.22650   1.00
O2       0.72650    0.77350    0.16180   1.00
O2       0.66180    0.77350    0.22650   1.00
O2       0.72650    0.83820    0.22650   1.00
O2       0.72650    0.66180    0.27350   1.00
O2       0.66180    0.72650    0.27350   1.00
O2       0.72650    0.72650    0.33820   1.00
O2       0.83820    0.77350    0.27350   1.00
O2       0.77350    0.83820    0.27350   1.00
O2       0.77350    0.77350    0.33820   1.00
C1       0.75000    0.75000    0.14480   1.00
C1       0.75000    0.64480    0.25000   1.00
C1       0.85520    0.75000    0.25000   1.00
C1       0.64480    0.75000    0.25000   1.00
C1       0.75000    0.85520    0.25000   1.00
C1       0.75000    0.75000    0.35520   1.00
O1       0.75000    0.25000    0.75000   1.00
Zn1      0.78280    0.21720    0.71720   1.00
Zn1      0.71720    0.28280    0.71720   1.00
Zn1      0.71720    0.21720    0.78280   1.00
Zn1      0.78280    0.28280    0.78280   1.00
O2       0.77350    0.22650    0.66180   1.00
O2       0.77350    0.16180    0.72650   1.00
O2       0.83820    0.22650    0.72650   1.00
O2       0.72650    0.27350    0.66180   1.00
O2       0.66180    0.27350    0.72650   1.00
O2       0.72650    0.33820    0.72650   1.00
O2       0.72650    0.16180    0.77350   1.00
O2       0.66180    0.22650    0.77350   1.00
O2       0.72650    0.22650    0.83820   1.00
O2       0.83820    0.27350    0.77350   1.00
O2       0.77350    0.33820    0.77350   1.00
O2       0.77350    0.27350    0.83820   1.00
C1       0.75000    0.25000    0.64480   1.00
C1       0.75000    0.14480    0.75000   1.00
C1       0.85520    0.25000    0.75000   1.00
C1       0.64480    0.25000    0.75000   1.00
C1       0.75000    0.35520    0.75000   1.00
C1       0.75000    0.25000    0.85520   1.00
O1       0.25000    0.75000    0.75000   1.00
Zn1      0.28280    0.71720    0.71720   1.00
Zn1      0.21720    0.78280    0.71720   1.00
Zn1      0.21720    0.71720    0.78280   1.00
Zn1      0.28280    0.78280    0.78280   1.00
O2       0.27350    0.72650    0.66180   1.00
O2       0.27350    0.66180    0.72650   1.00
O2       0.33820    0.72650    0.72650   1.00
O2       0.22650    0.77350    0.66180   1.00
O2       0.16180    0.77350    0.72650   1.00
O2       0.22650    0.83820    0.72650   1.00
O2       0.22650    0.66180    0.77350   1.00
O2       0.16180    0.72650    0.77350   1.00
O2       0.22650    0.72650    0.83820   1.00
O2       0.33820    0.77350    0.77350   1.00
O2       0.27350    0.83820    0.77350   1.00
O2       0.27350    0.77350    0.83820   1.00
C1       0.25000    0.75000    0.64480   1.00
C1       0.25000    0.64480    0.75000   1.00
C1       0.35520    0.75000    0.75000   1.00
C1       0.14480    0.75000    0.75000   1.00
C1       0.25000    0.85520    0.75000   1.00
C1       0.25000    0.75000    0.85520   1.00
O1       1.00000    1.00000    1.00000   1.00
Zn1      0.96720    1.03280    1.03280   1.00
Zn1      1.03280    0.96720    1.03280   1.00
Zn1      1.03280    1.03280    0.96720   1.00
Zn1      0.96720    0.96720    0.96720   1.00
O2       0.97650    1.02350    1.08820   1.00
O2       0.97650    1.08820    1.02350   1.00
O2       0.91180    1.02350    1.02350   1.00
O2       1.02350    0.97650    1.08820   1.00
O2       1.08820    0.97650    1.02350   1.00
O2       1.02350    0.91180    1.02350   1.00
O2       1.02350    1.08820    0.97650   1.00
O2       1.08820    1.02350    0.97650   1.00
O2       1.02350    1.02350    0.91180   1.00
O2       0.91180    0.97650    0.97650   1.00
O2       0.97650    0.91180    0.97650   1.00
O2       0.97650    0.97650    0.91180   1.00
C1       1.00000    1.00000    1.10520   1.00
C1       1.00000    1.10520    1.00000   1.00
C1       0.89480    1.00000    1.00000   1.00
C1       1.10520    1.00000    1.00000   1.00
C1       1.00000    0.89480    1.00000   1.00
C1       1.00000    1.00000    0.89480   1.00
O1       0.50000    0.50000    1.00000   1.00
Zn1      0.46720    0.53280    1.03280   1.00
Zn1      0.53280    0.46720    1.03280   1.00
Zn1      0.53280    0.53280    0.96720   1.00
Zn1      0.46720    0.46720    0.96720   1.00
O2       0.47650    0.52350    1.08820   1.00
O2       0.47650    0.58820    1.02350   1.00
O2       0.41180    0.52350    1.02350   1.00
O2       0.52350    0.47650    1.08820   1.00
O2       0.58820    0.47650    1.02350   1.00
O2       0.52350    0.41180    1.02350   1.00
O2       0.52350    0.58820    0.97650   1.00
O2       0.58820    0.52350    0.97650   1.00
O2       0.52350    0.52350    0.91180   1.00
O2       0.41180    0.47650    0.97650   1.00
O2       0.47650    0.41180    0.97650   1.00
O2       0.47650    0.47650    0.91180   1.00
C1       0.50000    0.50000    1.10520   1.00
C1       0.50000    0.60520    1.00000   1.00
C1       0.39480    0.50000    1.00000   1.00
C1       0.60520    0.50000    1.00000   1.00
C1       0.50000    0.39480    1.00000   1.00
C1       0.50000    0.50000    0.89480   1.00
O1       0.50000    1.00000    0.50000   1.00
Zn1      0.46720    1.03280    0.53280   1.00
Zn1      0.53280    0.96720    0.53280   1.00
Zn1      0.53280    1.03280    0.46720   1.00
Zn1      0.46720    0.96720    0.46720   1.00
O2       0.47650    1.02350    0.58820   1.00
O2       0.47650    1.08820    0.52350   1.00
O2       0.41180    1.02350    0.52350   1.00
O2       0.52350    0.97650    0.58820   1.00
O2       0.58820    0.97650    0.52350   1.00
O2       0.52350    0.91180    0.52350   1.00
O2       0.52350    1.08820    0.47650   1.00
O2       0.58820    1.02350    0.47650   1.00
O2       0.52350    1.02350    0.41180   1.00
O2       0.41180    0.97650    0.47650   1.00
O2       0.47650    0.91180    0.47650   1.00
O2       0.47650    0.97650    0.41180   1.00
C1       0.50000    1.00000    0.60520   1.00
C1       0.50000    1.10520    0.50000   1.00
C1       0.39480    1.00000    0.50000   1.00
C1       0.60520    1.00000    0.50000   1.00
C1       0.50000    0.89480    0.50000   1.00
C1       0.50000    1.00000    0.39480   1.00
O1       1.00000    0.50000    0.50000   1.00
Zn1      0.96720    0.53280    0.53280   1.00
Zn1      1.03280    0.46720    0.53280   1.00
Zn1      1.03280    0.53280    0.46720   1.00
Zn1      0.96720    0.46720    0.46720   1.00
O2       0.97650    0.52350    0.58820   1.00
O2       0.97650    0.58820    0.52350   1.00
O2       0.91180    0.52350    0.52350   1.00
O2       1.02350    0.47650    0.58820   1.00
O2       1.08820    0.47650    0.52350   1.00
O2       1.02350    0.41180    0.52350   1.00
O2       1.02350    0.58820    0.47650   1.00
O2       1.08820    0.52350    0.47650   1.00
O2       1.02350    0.52350    0.41180   1.00
O2       0.91180    0.47650    0.47650   1.00
O2       0.97650    0.41180    0.47650   1.00
O2       0.97650    0.47650    0.41180   1.00
C1       1.00000    0.50000    0.60520   1.00
C1       1.00000    0.60520    0.50000   1.00
C1       0.89480    0.50000    0.50000   1.00
C1       1.10520    0.50000    0.50000   1.00
C1       1.00000    0.39480    0.50000   1.00
C1       1.00000    0.50000    0.39480   1.00
O1       0.50000    0.50000    0.50000   1.00
Zn1      0.53280    0.46720    0.46720   1.00
Zn1      0.46720    0.53280    0.46720   1.00
Zn1      0.46720    0.46720    0.53280   1.00
Zn1      0.53280    0.53280    0.53280   1.00
O2       0.52350    0.47650    0.41180   1.00
O2       0.52350    0.41180    0.47650   1.00
O2       0.58820    0.47650    0.47650   1.00
O2       0.47650    0.52350    0.41180   1.00
O2       0.41180    0.52350    0.47650   1.00
O2       0.47650    0.58820    0.47650   1.00
O2       0.47650    0.41180    0.52350   1.00
O2       0.41180    0.47650    0.52350   1.00
O2       0.47650    0.47650    0.58820   1.00
O2       0.58820    0.52350    0.52350   1.00
O2       0.52350    0.58820    0.52350   1.00
O2       0.52350    0.52350    0.58820   1.00
C1       0.50000    0.50000    0.39480   1.00
C1       0.50000    0.39480    0.50000   1.00
C1       0.60520    0.50000    0.50000   1.00
C1       0.39480    0.50000    0.50000   1.00
C1       0.50000    0.60520    0.50000   1.00
C1       0.50000    0.50000    0.60520   1.00
O1       1.00000    1.00000    0.50000   1.00
Zn1      1.03280    0.96720    0.46720   1.00
Zn1      0.96720    1.03280    0.46720   1.00
Zn1      0.96720    0.96720    0.53280   1.00
Zn1      1.03280    1.03280    0.53280   1.00
O2       1.02350    0.97650    0.41180   1.00
O2       1.02350    0.91180    0.47650   1.00
O2       1.08820    0.97650    0.47650   1.00
O2       0.97650    1.02350    0.41180   1.00
O2       0.91180    1.02350    0.47650   1.00
O2       0.97650    1.08820    0.47650   1.00
O2       0.97650    0.91180    0.52350   1.00
O2       0.91180    0.97650    0.52350   1.00
O2       0.97650    0.97650    0.58820   1.00
O2       1.08820    1.02350    0.52350   1.00
O2       1.02350    1.08820    0.52350   1.00
O2       1.02350    1.02350    0.58820   1.00
C1       1.00000    1.00000    0.39480   1.00
C1       1.00000    0.89480    0.50000   1.00
C1       1.10520    1.00000    0.50000   1.00
C1       0.89480    1.00000    0.50000   1.00
C1       1.00000    1.10520    0.50000   1.00
C1       1.00000    1.00000    0.60520   1.00
O1       1.00000    0.50000    1.00000   1.00
Zn1      1.03280    0.46720    0.96720   1.00
Zn1      0.96720    0.53280    0.96720   1.00
Zn1      0.96720    0.46720    1.03280   1.00
Zn1      1.03280    0.53280    1.03280   1.00
O2       1.02350    0.47650    0.91180   1.00
O2       1.02350    0.41180    0.97650   1.00
O2       1.08820    0.47650    0.97650   1.00
O2       0.97650    0.52350    0.91180   1.00
O2       0.91180    0.52350    0.97650   1.00
O2       0.97650    0.58820    0.97650   1.00
O2       0.97650    0.41180    1.02350   1.00
O2       0.91180    0.47650    1.02350   1.00
O2       0.97650    0.47650    1.08820   1.00
O2       1.08820    0.52350    1.02350   1.00
O2       1.02350    0.58820    1.02350   1.00
O2       1.02350    0.52350    1.08820   1.00
C1       1.00000    0.50000    0.89480   1.00
C1       1.00000    0.39480    1.00000   1.00
C1       1.10520    0.50000    1.00000   1.00
C1       0.89480    0.50000    1.00000   1.00
C1       1.00000    0.60520    1.00000   1.00
C1       1.00000    0.50000    1.10520   1.00
O1       0.50000    1.00000    1.00000   1.00
Zn1      0.53280    0.96720    0.96720   1.00
Zn1      0.46720    1.03280    0.96720   1.00
Zn1      0.46720    0.96720    1.03280   1.00
Zn1      0.53280    1.03280    1.03280   1.00
O2       0.52350    0.97650    0.91180   1.00
O2       0.52350    0.91180    0.97650   1.00
O2       0.58820    0.97650    0.97650   1.00
O2       0.47650    1.02350    0.91180   1.00
O2       0.41180    1.02350    0.97650   1.00
O2       0.47650    1.08820    0.97650   1.00
O2       0.47650    0.91180    1.02350   1.00
O2       0.41180    0.97650    1.02350   1.00
O2       0.47650    0.97650    1.08820   1.00
O2       0.58820    1.02350    1.02350   1.00
O2       0.52350    1.08820    1.02350   1.00
O2       0.52350    1.02350    1.08820   1.00
C1       0.50000    1.00000    0.89480   1.00
C1       0.50000    0.89480    1.00000   1.00
C1       0.60520    1.00000    1.00000   1.00
C1       0.39480    1.00000    1.00000   1.00
C1       0.50000    1.10520    1.00000   1.00
C1       0.50000    1.00000    1.10520   1.00
C4       0.75036    0.75013    0.97915   1.00
C4       0.74964    0.74987    1.02085   1.00
C3       0.77390    0.72398    0.95751   1.00
C3       0.75039    0.71474    1.04252   1.00
C3       0.72679    0.77615    0.95738   1.00
C3       0.74903    0.78498    1.04259   1.00
C2       0.75006    0.74985    0.89482   1.00
C2       0.75006    0.74985    1.10518   1.00
C3a      0.77387    0.72373    0.91599   1.00
C3       0.75058    0.71481    1.08382   1.00
C3       0.72668    0.77595    0.91611   1.00
C3a      0.74921    0.78518    1.08403   1.00
H1       0.79267    0.70381    0.97294   1.00
H1       0.75047    0.68695    1.02750   1.00
C5       0.79946    0.69557    0.89410   1.00
H1       0.75111    0.68729    1.09933   1.00
H1       0.70800    0.79612    0.90056   1.00
C5       0.74849    0.82357    1.10535   1.00
H1       0.74956    0.81269    1.02747   1.00
H1       0.70762    0.79634    0.97230   1.00
H2       0.72069    0.83876    1.09837   1.00
H2       0.74914    0.81910    1.13747   1.00
N1       0.78182    0.84767    1.09395   1.00
C6       0.78896    0.86206    1.05810   1.00
C6       0.81078    0.85984    1.11757   1.00
C6       0.82299    0.88354    1.05873   1.00
C6       0.83687    0.88212    1.09656   1.00
H3       0.77060    0.85735    1.03281   1.00
H3       0.81296    0.85285    1.14831   1.00
H3       0.83620    0.89861    1.03436   1.00
H3       0.86306    0.89581    1.10758   1.00
H2       0.79474    0.69965    0.86228   1.00
H2       0.83083    0.70125    0.90001   1.00
N1       0.79029    0.65550    0.90523   1.00
C6       0.77627    0.62517    0.88078   1.00
C6       0.79375    0.63850    0.94285   1.00
C6       0.77152    0.59175    0.90277   1.00
C6       0.78224    0.59994    0.94091   1.00
H3       0.77024    0.62808    0.84992   1.00
H3       0.80348    0.65373    0.96876   1.00
H3       0.76114    0.56396    0.89205   1.00
H3       0.78161    0.57965    0.96505   1.00
C4       0.75013    0.97915    0.75036   1.00
C4       0.74987    1.02085    0.74964   1.00
C3       0.72398    0.95751    0.77390   1.00
C3       0.71474    1.04252    0.75039   1.00
C3       0.77615    0.95738    0.72679   1.00
C3       0.78498    1.04259    0.74903   1.00
C2       0.74985    0.89482    0.75006   1.00
C2       0.74985    1.10518    0.75006   1.00
C3a      0.72373    0.91599    0.77387   1.00
C3       0.71481    1.08382    0.75058   1.00
C3       0.77595    0.91611    0.72668   1.00
C3a      0.78518    1.08403    0.74921   1.00
H1       0.70381    0.97294    0.79267   1.00
H1       0.68695    1.02750    0.75047   1.00
C5       0.69557    0.89410    0.79946   1.00
H1       0.68729    1.09933    0.75111   1.00
H1       0.79612    0.90056    0.70800   1.00
C5       0.82357    1.10535    0.74849   1.00
H1       0.81269    1.02747    0.74956   1.00
H1       0.79634    0.97230    0.70762   1.00
H2       0.83876    1.09837    0.72069   1.00
H2       0.81910    1.13747    0.74914   1.00
N1       0.84767    1.09395    0.78182   1.00
C6       0.86206    1.05810    0.78896   1.00
C6       0.85984    1.11757    0.81078   1.00
C6       0.88354    1.05873    0.82299   1.00
C6       0.88212    1.09656    0.83687   1.00
H3       0.85735    1.03281    0.77060   1.00
H3       0.85285    1.14831    0.81296   1.00
H3       0.89861    1.03436    0.83620   1.00
H3       0.89581    1.10758    0.86306   1.00
H2       0.69965    0.86228    0.79474   1.00
H2       0.70125    0.90001    0.83083   1.00
N1       0.65550    0.90523    0.79029   1.00
C6       0.62517    0.88078    0.77627   1.00
C6       0.63850    0.94285    0.79375   1.00
C6       0.59175    0.90277    0.77152   1.00
C6       0.59994    0.94091    0.78224   1.00
H3       0.62808    0.84992    0.77024   1.00
H3       0.65373    0.96876    0.80348   1.00
H3       0.56396    0.89205    0.76114   1.00
H3       0.57965    0.96505    0.78161   1.00
C4       0.52085    0.75036    0.74987   1.00
C4       0.47915    0.74964    0.75013   1.00
C3       0.54249    0.77390    0.77602   1.00
C3       0.45748    0.75039    0.78526   1.00
C3       0.54262    0.72679    0.72385   1.00
C3       0.45741    0.74903    0.71502   1.00
C2       0.60518    0.75006    0.75015   1.00
C2       0.39482    0.75006    0.75015   1.00
C3a      0.58401    0.77387    0.77627   1.00
C3       0.41618    0.75058    0.78519   1.00
C3       0.58389    0.72668    0.72405   1.00
C3a      0.41597    0.74921    0.71482   1.00
H1       0.52706    0.79267    0.79619   1.00
H1       0.47250    0.75047    0.81305   1.00
C5       0.60590    0.79946    0.80443   1.00
H1       0.40067    0.75111    0.81271   1.00
H1       0.59944    0.70800    0.70388   1.00
C5       0.39465    0.74849    0.67643   1.00
H1       0.47253    0.74956    0.68731   1.00
H1       0.52770    0.70762    0.70366   1.00
H2       0.40163    0.72069    0.66124   1.00
H2       0.36253    0.74914    0.68090   1.00
N1       0.40605    0.78182    0.65233   1.00
C6       0.44190    0.78896    0.63794   1.00
C6       0.38243    0.81078    0.64016   1.00
C6       0.44127    0.82299    0.61646   1.00
C6       0.40344    0.83687    0.61788   1.00
H3       0.46719    0.77060    0.64265   1.00
H3       0.35169    0.81296    0.64715   1.00
H3       0.46564    0.83620    0.60139   1.00
H3       0.39242    0.86306    0.60419   1.00
H2       0.63772    0.79474    0.80035   1.00
H2       0.59999    0.83083    0.79875   1.00
N1       0.59477    0.79029    0.84450   1.00
C6       0.61922    0.77627    0.87483   1.00
C6       0.55715    0.79375    0.86150   1.00
C6       0.59723    0.77152    0.90825   1.00
C6       0.55909    0.78224    0.90006   1.00
H3       0.65008    0.77024    0.87192   1.00
H3       0.53124    0.80348    0.84627   1.00
H3       0.60795    0.76114    0.93604   1.00
H3       0.53495    0.78161    0.92035   1.00
C4       0.97915    0.75036    0.75013   1.00
C4       1.02085    0.74964    0.74987   1.00
C3       0.95751    0.77390    0.72398   1.00
C3       1.04252    0.75039    0.71474   1.00
C3       0.95738    0.72679    0.77615   1.00
C3       1.04259    0.74903    0.78498   1.00
C2       0.89482    0.75006    0.74985   1.00
C2       1.10518    0.75006    0.74985   1.00
C3a      0.91599    0.77387    0.72373   1.00
C3       1.08382    0.75058    0.71481   1.00
C3       0.91611    0.72668    0.77595   1.00
C3a      1.08403    0.74921    0.78518   1.00
H1       0.97294    0.79267    0.70381   1.00
H1       1.02750    0.75047    0.68695   1.00
C5       0.89410    0.79946    0.69557   1.00
H1       1.09933    0.75111    0.68729   1.00
H1       0.90056    0.70800    0.79612   1.00
C5       1.10535    0.74849    0.82357   1.00
H1       1.02747    0.74956    0.81269   1.00
H1       0.97230    0.70762    0.79634   1.00
H2       1.09837    0.72069    0.83876   1.00
H2       1.13747    0.74914    0.81910   1.00
N1       1.09395    0.78182    0.84767   1.00
C6       1.05810    0.78896    0.86206   1.00
C6       1.11757    0.81078    0.85984   1.00
C6       1.05873    0.82299    0.88354   1.00
C6       1.09656    0.83687    0.88212   1.00
H3       1.03281    0.77060    0.85735   1.00
H3       1.14831    0.81296    0.85285   1.00
H3       1.03436    0.83620    0.89861   1.00
H3       1.10758    0.86306    0.89581   1.00
H2       0.86228    0.79474    0.69965   1.00
H2       0.90001    0.83083    0.70125   1.00
N1       0.90523    0.79029    0.65550   1.00
C6       0.88078    0.77627    0.62517   1.00
C6       0.94285    0.79375    0.63850   1.00
C6       0.90277    0.77152    0.59175   1.00
C6       0.94091    0.78224    0.59994   1.00
H3       0.84992    0.77024    0.62808   1.00
H3       0.96876    0.80348    0.65373   1.00
H3       0.89205    0.76114    0.56396   1.00
H3       0.96505    0.78161    0.57965   1.00
C4       0.74987    0.52085    0.75036   1.00
C4       0.75013    0.47915    0.74964   1.00
C3       0.77602    0.54249    0.77390   1.00
C3       0.78526    0.45748    0.75039   1.00
C3       0.72385    0.54262    0.72679   1.00
C3       0.71502    0.45741    0.74903   1.00
C2       0.75015    0.60518    0.75006   1.00
C2       0.75015    0.39482    0.75006   1.00
C3a      0.77627    0.58401    0.77387   1.00
C3       0.78519    0.41618    0.75058   1.00
C3       0.72405    0.58389    0.72668   1.00
C3a      0.71482    0.41597    0.74921   1.00
H1       0.79619    0.52706    0.79267   1.00
H1       0.81305    0.47250    0.75047   1.00
C5       0.80443    0.60590    0.79946   1.00
H1       0.81271    0.40067    0.75111   1.00
H1       0.70388    0.59944    0.70800   1.00
C5       0.67643    0.39465    0.74849   1.00
H1       0.68731    0.47253    0.74956   1.00
H1       0.70366    0.52770    0.70762   1.00
H2       0.66124    0.40163    0.72069   1.00
H2       0.68090    0.36253    0.74914   1.00
N1       0.65233    0.40605    0.78182   1.00
C6       0.63794    0.44190    0.78896   1.00
C6       0.64016    0.38243    0.81078   1.00
C6       0.61646    0.44127    0.82299   1.00
C6       0.61788    0.40344    0.83687   1.00
H3       0.64265    0.46719    0.77060   1.00
H3       0.64715    0.35169    0.81296   1.00
H3       0.60139    0.46564    0.83620   1.00
H3       0.60419    0.39242    0.86306   1.00
H2       0.80035    0.63772    0.79474   1.00
H2       0.79875    0.59999    0.83083   1.00
N1       0.84450    0.59477    0.79029   1.00
C6       0.87483    0.61922    0.77627   1.00
C6       0.86150    0.55715    0.79375   1.00
C6       0.90825    0.59723    0.77152   1.00
C6       0.90006    0.55909    0.78224   1.00
H3       0.87192    0.65008    0.77024   1.00
H3       0.84627    0.53124    0.80348   1.00
H3       0.93604    0.60795    0.76114   1.00
H3       0.92035    0.53495    0.78161   1.00
C4       0.75036    0.74987    0.52085   1.00
C4       0.74964    0.75013    0.47915   1.00
C3       0.77390    0.77602    0.54249   1.00
C3       0.75039    0.78526    0.45748   1.00
C3       0.72679    0.72385    0.54262   1.00
C3       0.74903    0.71502    0.45741   1.00
C2       0.75006    0.75015    0.60518   1.00
C2       0.75006    0.75015    0.39482   1.00
C3a      0.77387    0.77627    0.58401   1.00
C3       0.75058    0.78519    0.41618   1.00
C3       0.72668    0.72405    0.58389   1.00
C3a      0.74921    0.71482    0.41597   1.00
H1       0.79267    0.79619    0.52706   1.00
H1       0.75047    0.81305    0.47250   1.00
C5       0.79946    0.80443    0.60590   1.00
H1       0.75111    0.81271    0.40067   1.00
H1       0.70800    0.70388    0.59944   1.00
C5       0.74849    0.67643    0.39465   1.00
H1       0.74956    0.68731    0.47253   1.00
H1       0.70762    0.70366    0.52770   1.00
H2       0.72069    0.66124    0.40163   1.00
H2       0.74914    0.68090    0.36253   1.00
N1       0.78182    0.65233    0.40605   1.00
C6       0.78896    0.63794    0.44190   1.00
C6       0.81078    0.64016    0.38243   1.00
C6       0.82299    0.61646    0.44127   1.00
C6       0.83687    0.61788    0.40344   1.00
H3       0.77060    0.64265    0.46719   1.00
H3       0.81296    0.64715    0.35169   1.00
H3       0.83620    0.60139    0.46564   1.00
H3       0.86306    0.60419    0.39242   1.00
H2       0.79474    0.80035    0.63772   1.00
H2       0.83083    0.79875    0.59999   1.00
N1       0.79029    0.84450    0.59477   1.00
C6       0.77627    0.87483    0.61922   1.00
C6       0.79375    0.86150    0.55715   1.00
C6       0.77152    0.90825    0.59723   1.00
C6       0.78224    0.90006    0.55909   1.00
H3       0.77024    0.87192    0.65008   1.00
H3       0.80348    0.84627    0.53124   1.00
H3       0.76114    0.93604    0.60795   1.00
H3       0.78161    0.92035    0.53495   1.00
C4       0.25036    0.25013    0.97915   1.00
C4       0.24964    0.24987    1.02085   1.00
C3       0.27390    0.22398    0.95751   1.00
C3       0.25039    0.21474    1.04252   1.00
C3       0.22679    0.27615    0.95738   1.00
C3       0.24903    0.28498    1.04259   1.00
C2       0.25006    0.24985    0.89482   1.00
C2       0.25006    0.24985    1.10518   1.00
C3a      0.27387    0.22373    0.91599   1.00
C3       0.25058    0.21481    1.08382   1.00
C3       0.22668    0.27595    0.91611   1.00
C3a      0.24921    0.28518    1.08403   1.00
H1       0.29267    0.20381    0.97294   1.00
H1       0.25047    0.18695    1.02750   1.00
C5       0.29946    0.19557    0.89410   1.00
H1       0.25111    0.18729    1.09933   1.00
H1       0.20800    0.29612    0.90056   1.00
C5       0.24849    0.32357    1.10535   1.00
H1       0.24956    0.31269    1.02747   1.00
H1       0.20762    0.29634    0.97230   1.00
H2       0.22069    0.33876    1.09837   1.00
H2       0.24914    0.31910    1.13747   1.00
N1       0.28182    0.34767    1.09395   1.00
C6       0.28896    0.36206    1.05810   1.00
C6       0.31078    0.35984    1.11757   1.00
C6       0.32299    0.38354    1.05873   1.00
C6       0.33687    0.38212    1.09656   1.00
H3       0.27060    0.35735    1.03281   1.00
H3       0.31296    0.35285    1.14831   1.00
H3       0.33620    0.39861    1.03436   1.00
H3       0.36306    0.39581    1.10758   1.00
H2       0.29474    0.19965    0.86228   1.00
H2       0.33083    0.20125    0.90001   1.00
N1       0.29029    0.15550    0.90523   1.00
C6       0.27627    0.12517    0.88078   1.00
C6       0.29375    0.13850    0.94285   1.00
C6       0.27152    0.09175    0.90277   1.00
C6       0.28224    0.09994    0.94091   1.00
H3       0.27024    0.12808    0.84992   1.00
H3       0.30348    0.15373    0.96876   1.00
H3       0.26114    0.06396    0.89205   1.00
H3       0.28161    0.07965    0.96505   1.00
C4       0.25013    0.47915    0.75036   1.00
C4       0.24987    0.52085    0.74964   1.00
C3       0.22398    0.45751    0.77390   1.00
C3       0.21474    0.54252    0.75039   1.00
C3       0.27615    0.45738    0.72679   1.00
C3       0.28498    0.54259    0.74903   1.00
C2       0.24985    0.39482    0.75006   1.00
C2       0.24985    0.60518    0.75006   1.00
C3a      0.22373    0.41599    0.77387   1.00
C3       0.21481    0.58382    0.75058   1.00
C3       0.27595    0.41611    0.72668   1.00
C3a      0.28518    0.58403    0.74921   1.00
H1       0.20381    0.47294    0.79267   1.00
H1       0.18695    0.52750    0.75047   1.00
C5       0.19557    0.39410    0.79946   1.00
H1       0.18729    0.59933    0.75111   1.00
H1       0.29612    0.40056    0.70800   1.00
C5       0.32357    0.60535    0.74849   1.00
H1       0.31269    0.52747    0.74956   1.00
H1       0.29634    0.47230    0.70762   1.00
H2       0.33876    0.59837    0.72069   1.00
H2       0.31910    0.63747    0.74914   1.00
N1       0.34767    0.59395    0.78182   1.00
C6       0.36206    0.55810    0.78896   1.00
C6       0.35984    0.61757    0.81078   1.00
C6       0.38354    0.55873    0.82299   1.00
C6       0.38212    0.59656    0.83687   1.00
H3       0.35735    0.53281    0.77060   1.00
H3       0.35285    0.64831    0.81296   1.00
H3       0.39861    0.53436    0.83620   1.00
H3       0.39581    0.60758    0.86306   1.00
H2       0.19965    0.36228    0.79474   1.00
H2       0.20125    0.40001    0.83083   1.00
N1       0.15550    0.40523    0.79029   1.00
C6       0.12517    0.38078    0.77627   1.00
C6       0.13850    0.44285    0.79375   1.00
C6       0.09175    0.40277    0.77152   1.00
C6       0.09994    0.44091    0.78224   1.00
H3       0.12808    0.34992    0.77024   1.00
H3       0.15373    0.46876    0.80348   1.00
H3       0.06396    0.39205    0.76114   1.00
H3       0.07965    0.46505    0.78161   1.00
C4       0.02085    0.25036    0.74987   1.00
C4       -0.02085   0.24964    0.75013   1.00
C3       0.04249    0.27390    0.77602   1.00
C3       -0.04252   0.25039    0.78526   1.00
C3       0.04262    0.22679    0.72385   1.00
C3       -0.04259   0.24903    0.71502   1.00
C2       0.10518    0.25006    0.75015   1.00
C2       -0.10518   0.25006    0.75015   1.00
C3a      0.08401    0.27387    0.77627   1.00
C3       -0.08382   0.25058    0.78519   1.00
C3       0.08389    0.22668    0.72405   1.00
C3a      -0.08403   0.24921    0.71482   1.00
H1       0.02706    0.29267    0.79619   1.00
H1       -0.02750   0.25047    0.81305   1.00
C5       0.10590    0.29946    0.80443   1.00
H1       -0.09933   0.25111    0.81271   1.00
H1       0.09944    0.20800    0.70388   1.00
C5       -0.10535   0.24849    0.67643   1.00
H1       -0.02747   0.24956    0.68731   1.00
H1       0.02770    0.20762    0.70366   1.00
H2       -0.09837   0.22069    0.66124   1.00
H2       -0.13747   0.24914    0.68090   1.00
N1       -0.09395   0.28182    0.65233   1.00
C6       -0.05810   0.28896    0.63794   1.00
C6       -0.11757   0.31078    0.64016   1.00
C6       -0.05873   0.32299    0.61646   1.00
C6       -0.09656   0.33687    0.61788   1.00
H3       -0.03281   0.27060    0.64265   1.00
H3       -0.14831   0.31296    0.64715   1.00
H3       -0.03436   0.33620    0.60139   1.00
H3       -0.10758   0.36306    0.60419   1.00
H2       0.13772    0.29474    0.80035   1.00
H2       0.09999    0.33083    0.79875   1.00
N1       0.09477    0.29029    0.84450   1.00
C6       0.11922    0.27627    0.87483   1.00
C6       0.05715    0.29375    0.86150   1.00
C6       0.09723    0.27152    0.90825   1.00
C6       0.05909    0.28224    0.90006   1.00
H3       0.15008    0.27024    0.87192   1.00
H3       0.03124    0.30348    0.84627   1.00
H3       0.10795    0.26114    0.93604   1.00
H3       0.03495    0.28161    0.92035   1.00
C4       0.47915    0.25036    0.75013   1.00
C4       0.52085    0.24964    0.74987   1.00
C3       0.45751    0.27390    0.72398   1.00
C3       0.54252    0.25039    0.71474   1.00
C3       0.45738    0.22679    0.77615   1.00
C3       0.54259    0.24903    0.78498   1.00
C2       0.39482    0.25006    0.74985   1.00
C2       0.60518    0.25006    0.74985   1.00
C3a      0.41599    0.27387    0.72373   1.00
C3       0.58382    0.25058    0.71481   1.00
C3       0.41611    0.22668    0.77595   1.00
C3a      0.58403    0.24921    0.78518   1.00
H1       0.47294    0.29267    0.70381   1.00
H1       0.52750    0.25047    0.68695   1.00
C5       0.39410    0.29946    0.69557   1.00
H1       0.59933    0.25111    0.68729   1.00
H1       0.40056    0.20800    0.79612   1.00
C5       0.60535    0.24849    0.82357   1.00
H1       0.52747    0.24956    0.81269   1.00
H1       0.47230    0.20762    0.79634   1.00
H2       0.59837    0.22069    0.83876   1.00
H2       0.63747    0.24914    0.81910   1.00
N1       0.59395    0.28182    0.84767   1.00
C6       0.55810    0.28896    0.86206   1.00
C6       0.61757    0.31078    0.85984   1.00
C6       0.55873    0.32299    0.88354   1.00
C6       0.59656    0.33687    0.88212   1.00
H3       0.53281    0.27060    0.85735   1.00
H3       0.64831    0.31296    0.85285   1.00
H3       0.53436    0.33620    0.89861   1.00
H3       0.60758    0.36306    0.89581   1.00
H2       0.36228    0.29474    0.69965   1.00
H2       0.40001    0.33083    0.70125   1.00
N1       0.40523    0.29029    0.65550   1.00
C6       0.38078    0.27627    0.62517   1.00
C6       0.44285    0.29375    0.63850   1.00
C6       0.40277    0.27152    0.59175   1.00
C6       0.44091    0.28224    0.59994   1.00
H3       0.34992    0.27024    0.62808   1.00
H3       0.46876    0.30348    0.65373   1.00
H3       0.39205    0.26114    0.56396   1.00
H3       0.46505    0.28161    0.57965   1.00
C4       0.24987    0.02085    0.75036   1.00
C4       0.25013    -0.02085   0.74964   1.00
C3       0.27602    0.04249    0.77390   1.00
C3       0.28526    -0.04252   0.75039   1.00
C3       0.22385    0.04262    0.72679   1.00
C3       0.21502    -0.04259   0.74903   1.00
C2       0.25015    0.10518    0.75006   1.00
C2       0.25015    -0.10518   0.75006   1.00
C3a      0.27627    0.08401    0.77387   1.00
C3       0.28519    -0.08382   0.75058   1.00
C3       0.22405    0.08389    0.72668   1.00
C3a      0.21482    -0.08403   0.74921   1.00
H1       0.29619    0.02706    0.79267   1.00
H1       0.31305    -0.02750   0.75047   1.00
C5       0.30443    0.10590    0.79946   1.00
H1       0.31271    -0.09933   0.75111   1.00
H1       0.20388    0.09944    0.70800   1.00
C5       0.17643    -0.10535   0.74849   1.00
H1       0.18731    -0.02747   0.74956   1.00
H1       0.20366    0.02770    0.70762   1.00
H2       0.16124    -0.09837   0.72069   1.00
H2       0.18090    -0.13747   0.74914   1.00
N1       0.15233    -0.09395   0.78182   1.00
C6       0.13794    -0.05810   0.78896   1.00
C6       0.14016    -0.11757   0.81078   1.00
C6       0.11646    -0.05873   0.82299   1.00
C6       0.11788    -0.09656   0.83687   1.00
H3       0.14265    -0.03281   0.77060   1.00
H3       0.14715    -0.14831   0.81296   1.00
H3       0.10139    -0.03436   0.83620   1.00
H3       0.10419    -0.10758   0.86306   1.00
H2       0.30035    0.13772    0.79474   1.00
H2       0.29875    0.09999    0.83083   1.00
N1       0.34450    0.09477    0.79029   1.00
C6       0.37483    0.11922    0.77627   1.00
C6       0.36150    0.05715    0.79375   1.00
C6       0.40825    0.09723    0.77152   1.00
C6       0.40006    0.05909    0.78224   1.00
H3       0.37192    0.15008    0.77024   1.00
H3       0.34627    0.03124    0.80348   1.00
H3       0.43604    0.10795    0.76114   1.00
H3       0.42035    0.03495    0.78161   1.00
C4       0.25036    0.24987    0.52085   1.00
C4       0.24964    0.25013    0.47915   1.00
C3       0.27390    0.27602    0.54249   1.00
C3       0.25039    0.28526    0.45748   1.00
C3       0.22679    0.22385    0.54262   1.00
C3       0.24903    0.21502    0.45741   1.00
C2       0.25006    0.25015    0.60518   1.00
C2       0.25006    0.25015    0.39482   1.00
C3a      0.27387    0.27627    0.58401   1.00
C3       0.25058    0.28519    0.41618   1.00
C3       0.22668    0.22405    0.58389   1.00
C3a      0.24921    0.21482    0.41597   1.00
H1       0.29267    0.29619    0.52706   1.00
H1       0.25047    0.31305    0.47250   1.00
C5       0.29946    0.30443    0.60590   1.00
H1       0.25111    0.31271    0.40067   1.00
H1       0.20800    0.20388    0.59944   1.00
C5       0.24849    0.17643    0.39465   1.00
H1       0.24956    0.18731    0.47253   1.00
H1       0.20762    0.20366    0.52770   1.00
H2       0.22069    0.16124    0.40163   1.00
H2       0.24914    0.18090    0.36253   1.00
N1       0.28182    0.15233    0.40605   1.00
C6       0.28896    0.13794    0.44190   1.00
C6       0.31078    0.14016    0.38243   1.00
C6       0.32299    0.11646    0.44127   1.00
C6       0.33687    0.11788    0.40344   1.00
H3       0.27060    0.14265    0.46719   1.00
H3       0.31296    0.14715    0.35169   1.00
H3       0.33620    0.10139    0.46564   1.00
H3       0.36306    0.10419    0.39242   1.00
H2       0.29474    0.30035    0.63772   1.00
H2       0.33083    0.29875    0.59999   1.00
N1       0.29029    0.34450    0.59477   1.00
C6       0.27627    0.37483    0.61922   1.00
C6       0.29375    0.36150    0.55715   1.00
C6       0.27152    0.40825    0.59723   1.00
C6       0.28224    0.40006    0.55909   1.00
H3       0.27024    0.37192    0.65008   1.00
H3       0.30348    0.34627    0.53124   1.00
H3       0.26114    0.43604    0.60795   1.00
H3       0.28161    0.42035    0.53495   1.00
C4       0.25036    0.75013    0.47915   1.00
C4       0.24964    0.74987    0.52085   1.00
C3       0.27390    0.72398    0.45751   1.00
C3       0.25039    0.71474    0.54252   1.00
C3       0.22679    0.77615    0.45738   1.00
C3       0.24903    0.78498    0.54259   1.00
C2       0.25006    0.74985    0.39482   1.00
C2       0.25006    0.74985    0.60518   1.00
C3a      0.27387    0.72373    0.41599   1.00
C3       0.25058    0.71481    0.58382   1.00
C3       0.22668    0.77595    0.41611   1.00
C3a      0.24921    0.78518    0.58403   1.00
H1       0.29267    0.70381    0.47294   1.00
H1       0.25047    0.68695    0.52750   1.00
C5       0.29946    0.69557    0.39410   1.00
H1       0.25111    0.68729    0.59933   1.00
H1       0.20800    0.79612    0.40056   1.00
C5       0.24849    0.82357    0.60535   1.00
H1       0.24956    0.81269    0.52747   1.00
H1       0.20762    0.79634    0.47230   1.00
H2       0.22069    0.83876    0.59837   1.00
H2       0.24914    0.81910    0.63747   1.00
N1       0.28182    0.84767    0.59395   1.00
C6       0.28896    0.86206    0.55810   1.00
C6       0.31078    0.85984    0.61757   1.00
C6       0.32299    0.88354    0.55873   1.00
C6       0.33687    0.88212    0.59656   1.00
H3       0.27060    0.85735    0.53281   1.00
H3       0.31296    0.85285    0.64831   1.00
H3       0.33620    0.89861    0.53436   1.00
H3       0.36306    0.89581    0.60758   1.00
H2       0.29474    0.69965    0.36228   1.00
H2       0.33083    0.70125    0.40001   1.00
N1       0.29029    0.65550    0.40523   1.00
C6       0.27627    0.62517    0.38078   1.00
C6       0.29375    0.63850    0.44285   1.00
C6       0.27152    0.59175    0.40277   1.00
C6       0.28224    0.59994    0.44091   1.00
H3       0.27024    0.62808    0.34992   1.00
H3       0.30348    0.65373    0.46876   1.00
H3       0.26114    0.56396    0.39205   1.00
H3       0.28161    0.57965    0.46505   1.00
C4       0.25013    0.97915    0.25036   1.00
C4       0.24987    1.02085    0.24964   1.00
C3       0.22398    0.95751    0.27390   1.00
C3       0.21474    1.04252    0.25039   1.00
C3       0.27615    0.95738    0.22679   1.00
C3       0.28498    1.04259    0.24903   1.00
C2       0.24985    0.89482    0.25006   1.00
C2       0.24985    1.10518    0.25006   1.00
C3a      0.22373    0.91599    0.27387   1.00
C3       0.21481    1.08382    0.25058   1.00
C3       0.27595    0.91611    0.22668   1.00
C3a      0.28518    1.08403    0.24921   1.00
H1       0.20381    0.97294    0.29267   1.00
H1       0.18695    1.02750    0.25047   1.00
C5       0.19557    0.89410    0.29946   1.00
H1       0.18729    1.09933    0.25111   1.00
H1       0.29612    0.90056    0.20800   1.00
C5       0.32357    1.10535    0.24849   1.00
H1       0.31269    1.02747    0.24956   1.00
H1       0.29634    0.97230    0.20762   1.00
H2       0.33876    1.09837    0.22069   1.00
H2       0.31910    1.13747    0.24914   1.00
N1       0.34767    1.09395    0.28182   1.00
C6       0.36206    1.05810    0.28896   1.00
C6       0.35984    1.11757    0.31078   1.00
C6       0.38354    1.05873    0.32299   1.00
C6       0.38212    1.09656    0.33687   1.00
H3       0.35735    1.03281    0.27060   1.00
H3       0.35285    1.14831    0.31296   1.00
H3       0.39861    1.03436    0.33620   1.00
H3       0.39581    1.10758    0.36306   1.00
H2       0.19965    0.86228    0.29474   1.00
H2       0.20125    0.90001    0.33083   1.00
N1       0.15550    0.90523    0.29029   1.00
C6       0.12517    0.88078    0.27627   1.00
C6       0.13850    0.94285    0.29375   1.00
C6       0.09175    0.90277    0.27152   1.00
C6       0.09994    0.94091    0.28224   1.00
H3       0.12808    0.84992    0.27024   1.00
H3       0.15373    0.96876    0.30348   1.00
H3       0.06396    0.89205    0.26114   1.00
H3       0.07965    0.96505    0.28161   1.00
C4       0.02085    0.75036    0.24987   1.00
C4       -0.02085   0.74964    0.25013   1.00
C3       0.04249    0.77390    0.27602   1.00
C3       -0.04252   0.75039    0.28526   1.00
C3       0.04262    0.72679    0.22385   1.00
C3       -0.04259   0.74903    0.21502   1.00
C2       0.10518    0.75006    0.25015   1.00
C2       -0.10518   0.75006    0.25015   1.00
C3a      0.08401    0.77387    0.27627   1.00
C3       -0.08382   0.75058    0.28519   1.00
C3       0.08389    0.72668    0.22405   1.00
C3a      -0.08403   0.74921    0.21482   1.00
H1       0.02706    0.79267    0.29619   1.00
H1       -0.02750   0.75047    0.31305   1.00
C5       0.10590    0.79946    0.30443   1.00
H1       -0.09933   0.75111    0.31271   1.00
H1       0.09944    0.70800    0.20388   1.00
C5       -0.10535   0.74849    0.17643   1.00
H1       -0.02747   0.74956    0.18731   1.00
H1       0.02770    0.70762    0.20366   1.00
H2       -0.09837   0.72069    0.16124   1.00
H2       -0.13747   0.74914    0.18090   1.00
N1       -0.09395   0.78182    0.15233   1.00
C6       -0.05810   0.78896    0.13794   1.00
C6       -0.11757   0.81078    0.14016   1.00
C6       -0.05873   0.82299    0.11646   1.00
C6       -0.09656   0.83687    0.11788   1.00
H3       -0.03281   0.77060    0.14265   1.00
H3       -0.14831   0.81296    0.14715   1.00
H3       -0.03436   0.83620    0.10139   1.00
H3       -0.10758   0.86306    0.10419   1.00
H2       0.13772    0.79474    0.30035   1.00
H2       0.09999    0.83083    0.29875   1.00
N1       0.09477    0.79029    0.34450   1.00
C6       0.11922    0.77627    0.37483   1.00
C6       0.05715    0.79375    0.36150   1.00
C6       0.09723    0.77152    0.40825   1.00
C6       0.05909    0.78224    0.40006   1.00
H3       0.15008    0.77024    0.37192   1.00
H3       0.03124    0.80348    0.34627   1.00
H3       0.10795    0.76114    0.43604   1.00
H3       0.03495    0.78161    0.42035   1.00
C4       0.47915    0.75036    0.25013   1.00
C4       0.52085    0.74964    0.24987   1.00
C3       0.45751    0.77390    0.22398   1.00
C3       0.54252    0.75039    0.21474   1.00
C3       0.45738    0.72679    0.27615   1.00
C3       0.54259    0.74903    0.28498   1.00
C2       0.39482    0.75006    0.24985   1.00
C2       0.60518    0.75006    0.24985   1.00
C3a      0.41599    0.77387    0.22373   1.00
C3       0.58382    0.75058    0.21481   1.00
C3       0.41611    0.72668    0.27595   1.00
C3a      0.58403    0.74921    0.28518   1.00
H1       0.47294    0.79267    0.20381   1.00
H1       0.52750    0.75047    0.18695   1.00
C5       0.39410    0.79946    0.19557   1.00
H1       0.59933    0.75111    0.18729   1.00
H1       0.40056    0.70800    0.29612   1.00
C5       0.60535    0.74849    0.32357   1.00
H1       0.52747    0.74956    0.31269   1.00
H1       0.47230    0.70762    0.29634   1.00
H2       0.59837    0.72069    0.33876   1.00
H2       0.63747    0.74914    0.31910   1.00
N1       0.59395    0.78182    0.34767   1.00
C6       0.55810    0.78896    0.36206   1.00
C6       0.61757    0.81078    0.35984   1.00
C6       0.55873    0.82299    0.38354   1.00
C6       0.59656    0.83687    0.38212   1.00
H3       0.53281    0.77060    0.35735   1.00
H3       0.64831    0.81296    0.35285   1.00
H3       0.53436    0.83620    0.39861   1.00
H3       0.60758    0.86306    0.39581   1.00
H2       0.36228    0.79474    0.19965   1.00
H2       0.40001    0.83083    0.20125   1.00
N1       0.40523    0.79029    0.15550   1.00
C6       0.38078    0.77627    0.12517   1.00
C6       0.44285    0.79375    0.13850   1.00
C6       0.40277    0.77152    0.09175   1.00
C6       0.44091    0.78224    0.09994   1.00
H3       0.34992    0.77024    0.12808   1.00
H3       0.46876    0.80348    0.15373   1.00
H3       0.39205    0.76114    0.06396   1.00
H3       0.46505    0.78161    0.07965   1.00
C4       0.24987    0.52085    0.25036   1.00
C4       0.25013    0.47915    0.24964   1.00
C3       0.27602    0.54249    0.27390   1.00
C3       0.28526    0.45748    0.25039   1.00
C3       0.22385    0.54262    0.22679   1.00
C3       0.21502    0.45741    0.24903   1.00
C2       0.25015    0.60518    0.25006   1.00
C2       0.25015    0.39482    0.25006   1.00
C3a      0.27627    0.58401    0.27387   1.00
C3       0.28519    0.41618    0.25058   1.00
C3       0.22405    0.58389    0.22668   1.00
C3a      0.21482    0.41597    0.24921   1.00
H1       0.29619    0.52706    0.29267   1.00
H1       0.31305    0.47250    0.25047   1.00
C5       0.30443    0.60590    0.29946   1.00
H1       0.31271    0.40067    0.25111   1.00
H1       0.20388    0.59944    0.20800   1.00
C5       0.17643    0.39465    0.24849   1.00
H1       0.18731    0.47253    0.24956   1.00
H1       0.20366    0.52770    0.20762   1.00
H2       0.16124    0.40163    0.22069   1.00
H2       0.18090    0.36253    0.24914   1.00
N1       0.15233    0.40605    0.28182   1.00
C6       0.13794    0.44190    0.28896   1.00
C6       0.14016    0.38243    0.31078   1.00
C6       0.11646    0.44127    0.32299   1.00
C6       0.11788    0.40344    0.33687   1.00
H3       0.14265    0.46719    0.27060   1.00
H3       0.14715    0.35169    0.31296   1.00
H3       0.10139    0.46564    0.33620   1.00
H3       0.10419    0.39242    0.36306   1.00
H2       0.30035    0.63772    0.29474   1.00
H2       0.29875    0.59999    0.33083   1.00
N1       0.34450    0.59477    0.29029   1.00
C6       0.37483    0.61922    0.27627   1.00
C6       0.36150    0.55715    0.29375   1.00
C6       0.40825    0.59723    0.27152   1.00
C6       0.40006    0.55909    0.28224   1.00
H3       0.37192    0.65008    0.27024   1.00
H3       0.34627    0.53124    0.30348   1.00
H3       0.43604    0.60795    0.26114   1.00
H3       0.42035    0.53495    0.28161   1.00
C4       0.25036    0.74987    0.02085   1.00
C4       0.24964    0.75013    -0.02085   1.00
C3       0.27390    0.77602    0.04249   1.00
C3       0.25039    0.78526    -0.04252   1.00
C3       0.22679    0.72385    0.04262   1.00
C3       0.24903    0.71502    -0.04259   1.00
C2       0.25006    0.75015    0.10518   1.00
C2       0.25006    0.75015    -0.10518   1.00
C3a      0.27387    0.77627    0.08401   1.00
C3       0.25058    0.78519    -0.08382   1.00
C3       0.22668    0.72405    0.08389   1.00
C3a      0.24921    0.71482    -0.08403   1.00
H1       0.29267    0.79619    0.02706   1.00
H1       0.25047    0.81305    -0.02750   1.00
C5       0.29946    0.80443    0.10590   1.00
H1       0.25111    0.81271    -0.09933   1.00
H1       0.20800    0.70388    0.09944   1.00
C5       0.24849    0.67643    -0.10535   1.00
H1       0.24956    0.68731    -0.02747   1.00
H1       0.20762    0.70366    0.02770   1.00
H2       0.22069    0.66124    -0.09837   1.00
H2       0.24914    0.68090    -0.13747   1.00
N1       0.28182    0.65233    -0.09395   1.00
C6       0.28896    0.63794    -0.05810   1.00
C6       0.31078    0.64016    -0.11757   1.00
C6       0.32299    0.61646    -0.05873   1.00
C6       0.33687    0.61788    -0.09656   1.00
H3       0.27060    0.64265    -0.03281   1.00
H3       0.31296    0.64715    -0.14831   1.00
H3       0.33620    0.60139    -0.03436   1.00
H3       0.36306    0.60419    -0.10758   1.00
H2       0.29474    0.80035    0.13772   1.00
H2       0.33083    0.79875    0.09999   1.00
N1       0.29029    0.84450    0.09477   1.00
C6       0.27627    0.87483    0.11922   1.00
C6       0.29375    0.86150    0.05715   1.00
C6       0.27152    0.90825    0.09723   1.00
C6       0.28224    0.90006    0.05909   1.00
H3       0.27024    0.87192    0.15008   1.00
H3       0.30348    0.84627    0.03124   1.00
H3       0.26114    0.93604    0.10795   1.00
H3       0.28161    0.92035    0.03495   1.00
C4       0.75036    0.25013    0.47915   1.00
C4       0.74964    0.24987    0.52085   1.00
C3       0.77390    0.22398    0.45751   1.00
C3       0.75039    0.21474    0.54252   1.00
C3       0.72679    0.27615    0.45738   1.00
C3       0.74903    0.28498    0.54259   1.00
C2       0.75006    0.24985    0.39482   1.00
C2       0.75006    0.24985    0.60518   1.00
C3a      0.77387    0.22373    0.41599   1.00
C3       0.75058    0.21481    0.58382   1.00
C3       0.72668    0.27595    0.41611   1.00
C3a      0.74921    0.28518    0.58403   1.00
H1       0.79267    0.20381    0.47294   1.00
H1       0.75047    0.18695    0.52750   1.00
C5       0.79946    0.19557    0.39410   1.00
H1       0.75111    0.18729    0.59933   1.00
H1       0.70800    0.29612    0.40056   1.00
C5       0.74849    0.32357    0.60535   1.00
H1       0.74956    0.31269    0.52747   1.00
H1       0.70762    0.29634    0.47230   1.00
H2       0.72069    0.33876    0.59837   1.00
H2       0.74914    0.31910    0.63747   1.00
N1       0.78182    0.34767    0.59395   1.00
C6       0.78896    0.36206    0.55810   1.00
C6       0.81078    0.35984    0.61757   1.00
C6       0.82299    0.38354    0.55873   1.00
C6       0.83687    0.38212    0.59656   1.00
H3       0.77060    0.35735    0.53281   1.00
H3       0.81296    0.35285    0.64831   1.00
H3       0.83620    0.39861    0.53436   1.00
H3       0.86306    0.39581    0.60758   1.00
H2       0.79474    0.19965    0.36228   1.00
H2       0.83083    0.20125    0.40001   1.00
N1       0.79029    0.15550    0.40523   1.00
C6       0.77627    0.12517    0.38078   1.00
C6       0.79375    0.13850    0.44285   1.00
C6       0.77152    0.09175    0.40277   1.00
C6       0.78224    0.09994    0.44091   1.00
H3       0.77024    0.12808    0.34992   1.00
H3       0.80348    0.15373    0.46876   1.00
H3       0.76114    0.06396    0.39205   1.00
H3       0.78161    0.07965    0.46505   1.00
C4       0.75013    0.47915    0.25036   1.00
C4       0.74987    0.52085    0.24964   1.00
C3       0.72398    0.45751    0.27390   1.00
C3       0.71474    0.54252    0.25039   1.00
C3       0.77615    0.45738    0.22679   1.00
C3       0.78498    0.54259    0.24903   1.00
C2       0.74985    0.39482    0.25006   1.00
C2       0.74985    0.60518    0.25006   1.00
C3a      0.72373    0.41599    0.27387   1.00
C3       0.71481    0.58382    0.25058   1.00
C3       0.77595    0.41611    0.22668   1.00
C3a      0.78518    0.58403    0.24921   1.00
H1       0.70381    0.47294    0.29267   1.00
H1       0.68695    0.52750    0.25047   1.00
C5       0.69557    0.39410    0.29946   1.00
H1       0.68729    0.59933    0.25111   1.00
H1       0.79612    0.40056    0.20800   1.00
C5       0.82357    0.60535    0.24849   1.00
H1       0.81269    0.52747    0.24956   1.00
H1       0.79634    0.47230    0.20762   1.00
H2       0.83876    0.59837    0.22069   1.00
H2       0.81910    0.63747    0.24914   1.00
N1       0.84767    0.59395    0.28182   1.00
C6       0.86206    0.55810    0.28896   1.00
C6       0.85984    0.61757    0.31078   1.00
C6       0.88354    0.55873    0.32299   1.00
C6       0.88212    0.59656    0.33687   1.00
H3       0.85735    0.53281    0.27060   1.00
H3       0.85285    0.64831    0.31296   1.00
H3       0.89861    0.53436    0.33620   1.00
H3       0.89581    0.60758    0.36306   1.00
H2       0.69965    0.36228    0.29474   1.00
H2       0.70125    0.40001    0.33083   1.00
N1       0.65550    0.40523    0.29029   1.00
C6       0.62517    0.38078    0.27627   1.00
C6       0.63850    0.44285    0.29375   1.00
C6       0.59175    0.40277    0.27152   1.00
C6       0.59994    0.44091    0.28224   1.00
H3       0.62808    0.34992    0.27024   1.00
H3       0.65373    0.46876    0.30348   1.00
H3       0.56396    0.39205    0.26114   1.00
H3       0.57965    0.46505    0.28161   1.00
C4       0.52085    0.25036    0.24987   1.00
C4       0.47915    0.24964    0.25013   1.00
C3       0.54249    0.27390    0.27602   1.00
C3       0.45748    0.25039    0.28526   1.00
C3       0.54262    0.22679    0.22385   1.00
C3       0.45741    0.24903    0.21502   1.00
C2       0.60518    0.25006    0.25015   1.00
C2       0.39482    0.25006    0.25015   1.00
C3a      0.58401    0.27387    0.27627   1.00
C3       0.41618    0.25058    0.28519   1.00
C3       0.58389    0.22668    0.22405   1.00
C3a      0.41597    0.24921    0.21482   1.00
H1       0.52706    0.29267    0.29619   1.00
H1       0.47250    0.25047    0.31305   1.00
C5       0.60590    0.29946    0.30443   1.00
H1       0.40067    0.25111    0.31271   1.00
H1       0.59944    0.20800    0.20388   1.00
C5       0.39465    0.24849    0.17643   1.00
H1       0.47253    0.24956    0.18731   1.00
H1       0.52770    0.20762    0.20366   1.00
H2       0.40163    0.22069    0.16124   1.00
H2       0.36253    0.24914    0.18090   1.00
N1       0.40605    0.28182    0.15233   1.00
C6       0.44190    0.28896    0.13794   1.00
C6       0.38243    0.31078    0.14016   1.00
C6       0.44127    0.32299    0.11646   1.00
C6       0.40344    0.33687    0.11788   1.00
H3       0.46719    0.27060    0.14265   1.00
H3       0.35169    0.31296    0.14715   1.00
H3       0.46564    0.33620    0.10139   1.00
H3       0.39242    0.36306    0.10419   1.00
H2       0.63772    0.29474    0.30035   1.00
H2       0.59999    0.33083    0.29875   1.00
N1       0.59477    0.29029    0.34450   1.00
C6       0.61922    0.27627    0.37483   1.00
C6       0.55715    0.29375    0.36150   1.00
C6       0.59723    0.27152    0.40825   1.00
C6       0.55909    0.28224    0.40006   1.00
H3       0.65008    0.27024    0.37192   1.00
H3       0.53124    0.30348    0.34627   1.00
H3       0.60795    0.26114    0.43604   1.00
H3       0.53495    0.28161    0.42035   1.00
C4       0.97915    0.25036    0.25013   1.00
C4       1.02085    0.24964    0.24987   1.00
C3       0.95751    0.27390    0.22398   1.00
C3       1.04252    0.25039    0.21474   1.00
C3       0.95738    0.22679    0.27615   1.00
C3       1.04259    0.24903    0.28498   1.00
C2       0.89482    0.25006    0.24985   1.00
C2       1.10518    0.25006    0.24985   1.00
C3a      0.91599    0.27387    0.22373   1.00
C3       1.08382    0.25058    0.21481   1.00
C3       0.91611    0.22668    0.27595   1.00
C3a      1.08403    0.24921    0.28518   1.00
H1       0.97294    0.29267    0.20381   1.00
H1       1.02750    0.25047    0.18695   1.00
C5       0.89410    0.29946    0.19557   1.00
H1       1.09933    0.25111    0.18729   1.00
H1       0.90056    0.20800    0.29612   1.00
C5       1.10535    0.24849    0.32357   1.00
H1       1.02747    0.24956    0.31269   1.00
H1       0.97230    0.20762    0.29634   1.00
H2       1.09837    0.22069    0.33876   1.00
H2       1.13747    0.24914    0.31910   1.00
N1       1.09395    0.28182    0.34767   1.00
C6       1.05810    0.28896    0.36206   1.00
C6       1.11757    0.31078    0.35984   1.00
C6       1.05873    0.32299    0.38354   1.00
C6       1.09656    0.33687    0.38212   1.00
H3       1.03281    0.27060    0.35735   1.00
H3       1.14831    0.31296    0.35285   1.00
H3       1.03436    0.33620    0.39861   1.00
H3       1.10758    0.36306    0.39581   1.00
H2       0.86228    0.29474    0.19965   1.00
H2       0.90001    0.33083    0.20125   1.00
N1       0.90523    0.29029    0.15550   1.00
C6       0.88078    0.27627    0.12517   1.00
C6       0.94285    0.29375    0.13850   1.00
C6       0.90277    0.27152    0.09175   1.00
C6       0.94091    0.28224    0.09994   1.00
H3       0.84992    0.27024    0.12808   1.00
H3       0.96876    0.30348    0.15373   1.00
H3       0.89205    0.26114    0.06396   1.00
H3       0.96505    0.28161    0.07965   1.00
C4       0.74987    0.02085    0.25036   1.00
C4       0.75013    -0.02085   0.24964   1.00
C3       0.77602    0.04249    0.27390   1.00
C3       0.78526    -0.04252   0.25039   1.00
C3       0.72385    0.04262    0.22679   1.00
C3       0.71502    -0.04259   0.24903   1.00
C2       0.75015    0.10518    0.25006   1.00
C2       0.75015    -0.10518   0.25006   1.00
C3a      0.77627    0.08401    0.27387   1.00
C3       0.78519    -0.08382   0.25058   1.00
C3       0.72405    0.08389    0.22668   1.00
C3a      0.71482    -0.08403   0.24921   1.00
H1       0.79619    0.02706    0.29267   1.00
H1       0.81305    -0.02750   0.25047   1.00
C5       0.80443    0.10590    0.29946   1.00
H1       0.81271    -0.09933   0.25111   1.00
H1       0.70388    0.09944    0.20800   1.00
C5       0.67643    -0.10535   0.24849   1.00
H1       0.68731    -0.02747   0.24956   1.00
H1       0.70366    0.02770    0.20762   1.00
H2       0.66124    -0.09837   0.22069   1.00
H2       0.68090    -0.13747   0.24914   1.00
N1       0.65233    -0.09395   0.28182   1.00
C6       0.63794    -0.05810   0.28896   1.00
C6       0.64016    -0.11757   0.31078   1.00
C6       0.61646    -0.05873   0.32299   1.00
C6       0.61788    -0.09656   0.33687   1.00
H3       0.64265    -0.03281   0.27060   1.00
H3       0.64715    -0.14831   0.31296   1.00
H3       0.60139    -0.03436   0.33620   1.00
H3       0.60419    -0.10758   0.36306   1.00
H2       0.80035    0.13772    0.29474   1.00
H2       0.79875    0.09999    0.33083   1.00
N1       0.84450    0.09477    0.29029   1.00
C6       0.87483    0.11922    0.27627   1.00
C6       0.86150    0.05715    0.29375   1.00
C6       0.90825    0.09723    0.27152   1.00
C6       0.90006    0.05909    0.28224   1.00
H3       0.87192    0.15008    0.27024   1.00
H3       0.84627    0.03124    0.30348   1.00
H3       0.93604    0.10795    0.26114   1.00
H3       0.92035    0.03495    0.28161   1.00
C4       0.75036    0.24987    0.02085   1.00
C4       0.74964    0.25013    -0.02085   1.00
C3       0.77390    0.27602    0.04249   1.00
C3       0.75039    0.28526    -0.04252   1.00
C3       0.72679    0.22385    0.04262   1.00
C3       0.74903    0.21502    -0.04259   1.00
C2       0.75006    0.25015    0.10518   1.00
C2       0.75006    0.25015    -0.10518   1.00
C3a      0.77387    0.27627    0.08401   1.00
C3       0.75058    0.28519    -0.08382   1.00
C3       0.72668    0.22405    0.08389   1.00
C3a      0.74921    0.21482    -0.08403   1.00
H1       0.79267    0.29619    0.02706   1.00
H1       0.75047    0.31305    -0.02750   1.00
C5       0.79946    0.30443    0.10590   1.00
H1       0.75111    0.31271    -0.09933   1.00
H1       0.70800    0.20388    0.09944   1.00
C5       0.74849    0.17643    -0.10535   1.00
H1       0.74956    0.18731    -0.02747   1.00
H1       0.70762    0.20366    0.02770   1.00
H2       0.72069    0.16124    -0.09837   1.00
H2       0.74914    0.18090    -0.13747   1.00
N1       0.78182    0.15233    -0.09395   1.00
C6       0.78896    0.13794    -0.05810   1.00
C6       0.81078    0.14016    -0.11757   1.00
C6       0.82299    0.11646    -0.05873   1.00
C6       0.83687    0.11788    -0.09656   1.00
H3       0.77060    0.14265    -0.03281   1.00
H3       0.81296    0.14715    -0.14831   1.00
H3       0.83620    0.10139    -0.03436   1.00
H3       0.86306    0.10419    -0.10758   1.00
H2       0.79474    0.30035    0.13772   1.00
H2       0.83083    0.29875    0.09999   1.00
N1       0.79029    0.34450    0.09477   1.00
C6       0.77627    0.37483    0.11922   1.00
C6       0.79375    0.36150    0.05715   1.00
C6       0.77152    0.40825    0.09723   1.00
C6       0.78224    0.40006    0.05909   1.00
H3       0.77024    0.37192    0.15008   1.00
H3       0.80348    0.34627    0.03124   1.00
H3       0.76114    0.43604    0.10795   1.00
H3       0.78161    0.42035    0.03495   1.00
C4       1.00036    1.00013    1.22915   1.00
C4       0.99964    0.99987    1.27085   1.00
C3       1.02390    0.97398    1.20751   1.00
C3       1.00039    0.96474    1.29252   1.00
C3       0.97679    1.02615    1.20738   1.00
C3       0.99903    1.03498    1.29259   1.00
C2       1.00006    0.99985    1.14482   1.00
C2       1.00006    0.99985    1.35518   1.00
C3a      1.02387    0.97373    1.16599   1.00
C3       1.00058    0.96481    1.33382   1.00
C3       0.97668    1.02595    1.16611   1.00
C3a      0.99921    1.03518    1.33403   1.00
H1       1.04267    0.95381    1.22294   1.00
H1       1.00047    0.93695    1.27750   1.00
C5       1.04946    0.94557    1.14410   1.00
H1       1.00111    0.93729    1.34933   1.00
H1       0.95800    1.04612    1.15056   1.00
C5       0.99849    1.07357    1.35535   1.00
H1       0.99956    1.06269    1.27747   1.00
H1       0.95762    1.04634    1.22230   1.00
H2       0.97069    1.08876    1.34837   1.00
H2       0.99914    1.06910    1.38747   1.00
N1       1.03182    1.09767    1.34395   1.00
C6       1.03896    1.11206    1.30810   1.00
C6       1.06078    1.10984    1.36757   1.00
C6       1.07299    1.13354    1.30873   1.00
C6       1.08687    1.13212    1.34656   1.00
H3       1.02060    1.10735    1.28281   1.00
H3       1.06296    1.10285    1.39831   1.00
H3       1.08620    1.14861    1.28436   1.00
H3       1.11306    1.14581    1.35758   1.00
H2       1.04474    0.94965    1.11228   1.00
H2       1.08083    0.95125    1.15001   1.00
N1       1.04029    0.90550    1.15523   1.00
C6       1.02627    0.87517    1.13078   1.00
C6       1.04375    0.88850    1.19285   1.00
C6       1.02152    0.84175    1.15277   1.00
C6       1.03224    0.84994    1.19091   1.00
H3       1.02024    0.87808    1.09992   1.00
H3       1.05348    0.90373    1.21876   1.00
H3       1.01114    0.81396    1.14205   1.00
H3       1.03161    0.82965    1.21505   1.00
C4       1.00013    1.22915    1.00036   1.00
C4       0.99987    1.27085    0.99964   1.00
C3       0.97398    1.20751    1.02390   1.00
C3       0.96474    1.29252    1.00039   1.00
C3       1.02615    1.20738    0.97679   1.00
C3       1.03498    1.29259    0.99903   1.00
C2       0.99985    1.14482    1.00006   1.00
C2       0.99985    1.35518    1.00006   1.00
C3a      0.97373    1.16599    1.02387   1.00
C3       0.96481    1.33382    1.00058   1.00
C3       1.02595    1.16611    0.97668   1.00
C3a      1.03518    1.33403    0.99921   1.00
H1       0.95381    1.22294    1.04267   1.00
H1       0.93695    1.27750    1.00047   1.00
C5       0.94557    1.14410    1.04946   1.00
H1       0.93729    1.34933    1.00111   1.00
H1       1.04612    1.15056    0.95800   1.00
C5       1.07357    1.35535    0.99849   1.00
H1       1.06269    1.27747    0.99956   1.00
H1       1.04634    1.22230    0.95762   1.00
H2       1.08876    1.34837    0.97069   1.00
H2       1.06910    1.38747    0.99914   1.00
N1       1.09767    1.34395    1.03182   1.00
C6       1.11206    1.30810    1.03896   1.00
C6       1.10984    1.36757    1.06078   1.00
C6       1.13354    1.30873    1.07299   1.00
C6       1.13212    1.34656    1.08687   1.00
H3       1.10735    1.28281    1.02060   1.00
H3       1.10285    1.39831    1.06296   1.00
H3       1.14861    1.28436    1.08620   1.00
H3       1.14581    1.35758    1.11306   1.00
H2       0.94965    1.11228    1.04474   1.00
H2       0.95125    1.15001    1.08083   1.00
N1       0.90550    1.15523    1.04029   1.00
C6       0.87517    1.13078    1.02627   1.00
C6       0.88850    1.19285    1.04375   1.00
C6       0.84175    1.15277    1.02152   1.00
C6       0.84994    1.19091    1.03224   1.00
H3       0.87808    1.09992    1.02024   1.00
H3       0.90373    1.21876    1.05348   1.00
H3       0.81396    1.14205    1.01114   1.00
H3       0.82965    1.21505    1.03161   1.00
C4       0.77085    1.00036    0.99987   1.00
C4       0.72915    0.99964    1.00013   1.00
C3       0.79249    1.02390    1.02602   1.00
C3       0.70748    1.00039    1.03526   1.00
C3       0.79262    0.97679    0.97385   1.00
C3       0.70741    0.99903    0.96502   1.00
C2       0.85518    1.00006    1.00015   1.00
C2       0.64482    1.00006    1.00015   1.00
C3a      0.83401    1.02387    1.02627   1.00
C3       0.66618    1.00058    1.03519   1.00
C3       0.83389    0.97668    0.97405   1.00
C3a      0.66597    0.99921    0.96482   1.00
H1       0.77706    1.04267    1.04619   1.00
H1       0.72250    1.00047    1.06305   1.00
C5       0.85590    1.04946    1.05443   1.00
H1       0.65067    1.00111    1.06271   1.00
H1       0.84944    0.95800    0.95388   1.00
C5       0.64465    0.99849    0.92643   1.00
H1       0.72253    0.99956    0.93731   1.00
H1       0.77770    0.95762    0.95366   1.00
H2       0.65163    0.97069    0.91124   1.00
H2       0.61253    0.99914    0.93090   1.00
N1       0.65605    1.03182    0.90233   1.00
C6       0.69190    1.03896    0.88794   1.00
C6       0.63243    1.06078    0.89016   1.00
C6       0.69127    1.07299    0.86646   1.00
C6       0.65344    1.08687    0.86788   1.00
H3       0.71719    1.02060    0.89265   1.00
H3       0.60169    1.06296    0.89715   1.00
H3       0.71564    1.08620    0.85139   1.00
H3       0.64242    1.11306    0.85419   1.00
H2       0.88772    1.04474    1.05035   1.00
H2       0.84999    1.08083    1.04875   1.00
N1       0.84477    1.04029    1.09450   1.00
C6       0.86922    1.02627    1.12483   1.00
C6       0.80715    1.04375    1.11150   1.00
C6       0.84723    1.02152    1.15825   1.00
C6       0.80909    1.03224    1.15006   1.00
H3       0.90008    1.02024    1.12192   1.00
H3       0.78124    1.05348    1.09627   1.00
H3       0.85795    1.01114    1.18604   1.00
H3       0.78495    1.03161    1.17035   1.00
C4       1.22915    1.00036    1.00013   1.00
C4       1.27085    0.99964    0.99987   1.00
C3       1.20751    1.02390    0.97398   1.00
C3       1.29252    1.00039    0.96474   1.00
C3       1.20738    0.97679    1.02615   1.00
C3       1.29259    0.99903    1.03498   1.00
C2       1.14482    1.00006    0.99985   1.00
C2       1.35518    1.00006    0.99985   1.00
C3a      1.16599    1.02387    0.97373   1.00
C3       1.33382    1.00058    0.96481   1.00
C3       1.16611    0.97668    1.02595   1.00
C3a      1.33403    0.99921    1.03518   1.00
H1       1.22294    1.04267    0.95381   1.00
H1       1.27750    1.00047    0.93695   1.00
C5       1.14410    1.04946    0.94557   1.00
H1       1.34933    1.00111    0.93729   1.00
H1       1.15056    0.95800    1.04612   1.00
C5       1.35535    0.99849    1.07357   1.00
H1       1.27747    0.99956    1.06269   1.00
H1       1.22230    0.95762    1.04634   1.00
H2       1.34837    0.97069    1.08876   1.00
H2       1.38747    0.99914    1.06910   1.00
N1       1.34395    1.03182    1.09767   1.00
C6       1.30810    1.03896    1.11206   1.00
C6       1.36757    1.06078    1.10984   1.00
C6       1.30873    1.07299    1.13354   1.00
C6       1.34656    1.08687    1.13212   1.00
H3       1.28281    1.02060    1.10735   1.00
H3       1.39831    1.06296    1.10285   1.00
H3       1.28436    1.08620    1.14861   1.00
H3       1.35758    1.11306    1.14581   1.00
H2       1.11228    1.04474    0.94965   1.00
H2       1.15001    1.08083    0.95125   1.00
N1       1.15523    1.04029    0.90550   1.00
C6       1.13078    1.02627    0.87517   1.00
C6       1.19285    1.04375    0.88850   1.00
C6       1.15277    1.02152    0.84175   1.00
C6       1.19091    1.03224    0.84994   1.00
H3       1.09992    1.02024    0.87808   1.00
H3       1.21876    1.05348    0.90373   1.00
H3       1.14205    1.01114    0.81396   1.00
H3       1.21505    1.03161    0.82965   1.00
C4       0.99987    0.77085    1.00036   1.00
C4       1.00013    0.72915    0.99964   1.00
C3       1.02602    0.79249    1.02390   1.00
C3       1.03526    0.70748    1.00039   1.00
C3       0.97385    0.79262    0.97679   1.00
C3       0.96502    0.70741    0.99903   1.00
C2       1.00015    0.85518    1.00006   1.00
C2       1.00015    0.64482    1.00006   1.00
C3a      1.02627    0.83401    1.02387   1.00
C3       1.03519    0.66618    1.00058   1.00
C3       0.97405    0.83389    0.97668   1.00
C3a      0.96482    0.66597    0.99921   1.00
H1       1.04619    0.77706    1.04267   1.00
H1       1.06305    0.72250    1.00047   1.00
C5       1.05443    0.85590    1.04946   1.00
H1       1.06271    0.65067    1.00111   1.00
H1       0.95388    0.84944    0.95800   1.00
C5       0.92643    0.64465    0.99849   1.00
H1       0.93731    0.72253    0.99956   1.00
H1       0.95366    0.77770    0.95762   1.00
H2       0.91124    0.65163    0.97069   1.00
H2       0.93090    0.61253    0.99914   1.00
N1       0.90233    0.65605    1.03182   1.00
C6       0.88794    0.69190    1.03896   1.00
C6       0.89016    0.63243    1.06078   1.00
C6       0.86646    0.69127    1.07299   1.00
C6       0.86788    0.65344    1.08687   1.00
H3       0.89265    0.71719    1.02060   1.00
H3       0.89715    0.60169    1.06296   1.00
H3       0.85139    0.71564    1.08620   1.00
H3       0.85419    0.64242    1.11306   1.00
H2       1.05035    0.88772    1.04474   1.00
H2       1.04875    0.84999    1.08083   1.00
N1       1.09450    0.84477    1.04029   1.00
C6       1.12483    0.86922    1.02627   1.00
C6       1.11150    0.80715    1.04375   1.00
C6       1.15825    0.84723    1.02152   1.00
C6       1.15006    0.80909    1.03224   1.00
H3       1.12192    0.90008    1.02024   1.00
H3       1.09627    0.78124    1.05348   1.00
H3       1.18604    0.85795    1.01114   1.00
H3       1.17035    0.78495    1.03161   1.00
C4       1.00036    0.99987    0.77085   1.00
C4       0.99964    1.00013    0.72915   1.00
C3       1.02390    1.02602    0.79249   1.00
C3       1.00039    1.03526    0.70748   1.00
C3       0.97679    0.97385    0.79262   1.00
C3       0.99903    0.96502    0.70741   1.00
C2       1.00006    1.00015    0.85518   1.00
C2       1.00006    1.00015    0.64482   1.00
C3a      1.02387    1.02627    0.83401   1.00
C3       1.00058    1.03519    0.66618   1.00
C3       0.97668    0.97405    0.83389   1.00
C3a      0.99921    0.96482    0.66597   1.00
H1       1.04267    1.04619    0.77706   1.00
H1       1.00047    1.06305    0.72250   1.00
C5       1.04946    1.05443    0.85590   1.00
H1       1.00111    1.06271    0.65067   1.00
H1       0.95800    0.95388    0.84944   1.00
C5       0.99849    0.92643    0.64465   1.00
H1       0.99956    0.93731    0.72253   1.00
H1       0.95762    0.95366    0.77770   1.00
H2       0.97069    0.91124    0.65163   1.00
H2       0.99914    0.93090    0.61253   1.00
N1       1.03182    0.90233    0.65605   1.00
C6       1.03896    0.88794    0.69190   1.00
C6       1.06078    0.89016    0.63243   1.00
C6       1.07299    0.86646    0.69127   1.00
C6       1.08687    0.86788    0.65344   1.00
H3       1.02060    0.89265    0.71719   1.00
H3       1.06296    0.89715    0.60169   1.00
H3       1.08620    0.85139    0.71564   1.00
H3       1.11306    0.85419    0.64242   1.00
H2       1.04474    1.05035    0.88772   1.00
H2       1.08083    1.04875    0.84999   1.00
N1       1.04029    1.09450    0.84477   1.00
C6       1.02627    1.12483    0.86922   1.00
C6       1.04375    1.11150    0.80715   1.00
C6       1.02152    1.15825    0.84723   1.00
C6       1.03224    1.15006    0.80909   1.00
H3       1.02024    1.12192    0.90008   1.00
H3       1.05348    1.09627    0.78124   1.00
H3       1.01114    1.18604    0.85795   1.00
H3       1.03161    1.17035    0.78495   1.00
C4       0.50036    0.50013    1.22915   1.00
C4       0.49964    0.49987    1.27085   1.00
C3       0.52390    0.47398    1.20751   1.00
C3       0.50039    0.46474    1.29252   1.00
C3       0.47679    0.52615    1.20738   1.00
C3       0.49903    0.53498    1.29259   1.00
C2       0.50006    0.49985    1.14482   1.00
C2       0.50006    0.49985    1.35518   1.00
C3a      0.52387    0.47373    1.16599   1.00
C3       0.50058    0.46481    1.33382   1.00
C3       0.47668    0.52595    1.16611   1.00
C3a      0.49921    0.53518    1.33403   1.00
H1       0.54267    0.45381    1.22294   1.00
H1       0.50047    0.43695    1.27750   1.00
C5       0.54946    0.44557    1.14410   1.00
H1       0.50111    0.43729    1.34933   1.00
H1       0.45800    0.54612    1.15056   1.00
C5       0.49849    0.57357    1.35535   1.00
H1       0.49956    0.56269    1.27747   1.00
H1       0.45762    0.54634    1.22230   1.00
H2       0.47069    0.58876    1.34837   1.00
H2       0.49914    0.56910    1.38747   1.00
N1       0.53182    0.59767    1.34395   1.00
C6       0.53896    0.61206    1.30810   1.00
C6       0.56078    0.60984    1.36757   1.00
C6       0.57299    0.63354    1.30873   1.00
C6       0.58687    0.63212    1.34656   1.00
H3       0.52060    0.60735    1.28281   1.00
H3       0.56296    0.60285    1.39831   1.00
H3       0.58620    0.64861    1.28436   1.00
H3       0.61306    0.64581    1.35758   1.00
H2       0.54474    0.44965    1.11228   1.00
H2       0.58083    0.45125    1.15001   1.00
N1       0.54029    0.40550    1.15523   1.00
C6       0.52627    0.37517    1.13078   1.00
C6       0.54375    0.38850    1.19285   1.00
C6       0.52152    0.34175    1.15277   1.00
C6       0.53224    0.34994    1.19091   1.00
H3       0.52024    0.37808    1.09992   1.00
H3       0.55348    0.40373    1.21876   1.00
H3       0.51114    0.31396    1.14205   1.00
H3       0.53161    0.32965    1.21505   1.00
C4       0.50013    0.72915    1.00036   1.00
C4       0.49987    0.77085    0.99964   1.00
C3       0.47398    0.70751    1.02390   1.00
C3       0.46474    0.79252    1.00039   1.00
C3       0.52615    0.70738    0.97679   1.00
C3       0.53498    0.79259    0.99903   1.00
C2       0.49985    0.64482    1.00006   1.00
C2       0.49985    0.85518    1.00006   1.00
C3a      0.47373    0.66599    1.02387   1.00
C3       0.46481    0.83382    1.00058   1.00
C3       0.52595    0.66611    0.97668   1.00
C3a      0.53518    0.83403    0.99921   1.00
H1       0.45381    0.72294    1.04267   1.00
H1       0.43695    0.77750    1.00047   1.00
C5       0.44557    0.64410    1.04946   1.00
H1       0.43729    0.84933    1.00111   1.00
H1       0.54612    0.65056    0.95800   1.00
C5       0.57357    0.85535    0.99849   1.00
H1       0.56269    0.77747    0.99956   1.00
H1       0.54634    0.72230    0.95762   1.00
H2       0.58876    0.84837    0.97069   1.00
H2       0.56910    0.88747    0.99914   1.00
N1       0.59767    0.84395    1.03182   1.00
C6       0.61206    0.80810    1.03896   1.00
C6       0.60984    0.86757    1.06078   1.00
C6       0.63354    0.80873    1.07299   1.00
C6       0.63212    0.84656    1.08687   1.00
H3       0.60735    0.78281    1.02060   1.00
H3       0.60285    0.89831    1.06296   1.00
H3       0.64861    0.78436    1.08620   1.00
H3       0.64581    0.85758    1.11306   1.00
H2       0.44965    0.61228    1.04474   1.00
H2       0.45125    0.65001    1.08083   1.00
N1       0.40550    0.65523    1.04029   1.00
C6       0.37517    0.63078    1.02627   1.00
C6       0.38850    0.69285    1.04375   1.00
C6       0.34175    0.65277    1.02152   1.00
C6       0.34994    0.69091    1.03224   1.00
H3       0.37808    0.59992    1.02024   1.00
H3       0.40373    0.71876    1.05348   1.00
H3       0.31396    0.64205    1.01114   1.00
H3       0.32965    0.71505    1.03161   1.00
C4       0.27085    0.50036    0.99987   1.00
C4       0.22915    0.49964    1.00013   1.00
C3       0.29249    0.52390    1.02602   1.00
C3       0.20748    0.50039    1.03526   1.00
C3       0.29262    0.47679    0.97385   1.00
C3       0.20741    0.49903    0.96502   1.00
C2       0.35518    0.50006    1.00015   1.00
C2       0.14482    0.50006    1.00015   1.00
C3a      0.33401    0.52387    1.02627   1.00
C3       0.16618    0.50058    1.03519   1.00
C3       0.33389    0.47668    0.97405   1.00
C3a      0.16597    0.49921    0.96482   1.00
H1       0.27706    0.54267    1.04619   1.00
H1       0.22250    0.50047    1.06305   1.00
C5       0.35590    0.54946    1.05443   1.00
H1       0.15067    0.50111    1.06271   1.00
H1       0.34944    0.45800    0.95388   1.00
C5       0.14465    0.49849    0.92643   1.00
H1       0.22253    0.49956    0.93731   1.00
H1       0.27770    0.45762    0.95366   1.00
H2       0.15163    0.47069    0.91124   1.00
H2       0.11253    0.49914    0.93090   1.00
N1       0.15605    0.53182    0.90233   1.00
C6       0.19190    0.53896    0.88794   1.00
C6       0.13243    0.56078    0.89016   1.00
C6       0.19127    0.57299    0.86646   1.00
C6       0.15344    0.58687    0.86788   1.00
H3       0.21719    0.52060    0.89265   1.00
H3       0.10169    0.56296    0.89715   1.00
H3       0.21564    0.58620    0.85139   1.00
H3       0.14242    0.61306    0.85419   1.00
H2       0.38772    0.54474    1.05035   1.00
H2       0.34999    0.58083    1.04875   1.00
N1       0.34477    0.54029    1.09450   1.00
C6       0.36922    0.52627    1.12483   1.00
C6       0.30715    0.54375    1.11150   1.00
C6       0.34723    0.52152    1.15825   1.00
C6       0.30909    0.53224    1.15006   1.00
H3       0.40008    0.52024    1.12192   1.00
H3       0.28124    0.55348    1.09627   1.00
H3       0.35795    0.51114    1.18604   1.00
H3       0.28495    0.53161    1.17035   1.00
C4       0.72915    0.50036    1.00013   1.00
C4       0.77085    0.49964    0.99987   1.00
C3       0.70751    0.52390    0.97398   1.00
C3       0.79252    0.50039    0.96474   1.00
C3       0.70738    0.47679    1.02615   1.00
C3       0.79259    0.49903    1.03498   1.00
C2       0.64482    0.50006    0.99985   1.00
C2       0.85518    0.50006    0.99985   1.00
C3a      0.66599    0.52387    0.97373   1.00
C3       0.83382    0.50058    0.96481   1.00
C3       0.66611    0.47668    1.02595   1.00
C3a      0.83403    0.49921    1.03518   1.00
H1       0.72294    0.54267    0.95381   1.00
H1       0.77750    0.50047    0.93695   1.00
C5       0.64410    0.54946    0.94557   1.00
H1       0.84933    0.50111    0.93729   1.00
H1       0.65056    0.45800    1.04612   1.00
C5       0.85535    0.49849    1.07357   1.00
H1       0.77747    0.49956    1.06269   1.00
H1       0.72230    0.45762    1.04634   1.00
H2       0.84837    0.47069    1.08876   1.00
H2       0.88747    0.49914    1.06910   1.00
N1       0.84395    0.53182    1.09767   1.00
C6       0.80810    0.53896    1.11206   1.00
C6       0.86757    0.56078    1.10984   1.00
C6       0.80873    0.57299    1.13354   1.00
C6       0.84656    0.58687    1.13212   1.00
H3       0.78281    0.52060    1.10735   1.00
H3       0.89831    0.56296    1.10285   1.00
H3       0.78436    0.58620    1.14861   1.00
H3       0.85758    0.61306    1.14581   1.00
H2       0.61228    0.54474    0.94965   1.00
H2       0.65001    0.58083    0.95125   1.00
N1       0.65523    0.54029    0.90550   1.00
C6       0.63078    0.52627    0.87517   1.00
C6       0.69285    0.54375    0.88850   1.00
C6       0.65277    0.52152    0.84175   1.00
C6       0.69091    0.53224    0.84994   1.00
H3       0.59992    0.52024    0.87808   1.00
H3       0.71876    0.55348    0.90373   1.00
H3       0.64205    0.51114    0.81396   1.00
H3       0.71505    0.53161    0.82965   1.00
C4       0.49987    0.27085    1.00036   1.00
C4       0.50013    0.22915    0.99964   1.00
C3       0.52602    0.29249    1.02390   1.00
C3       0.53526    0.20748    1.00039   1.00
C3       0.47385    0.29262    0.97679   1.00
C3       0.46502    0.20741    0.99903   1.00
C2       0.50015    0.35518    1.00006   1.00
C2       0.50015    0.14482    1.00006   1.00
C3a      0.52627    0.33401    1.02387   1.00
C3       0.53519    0.16618    1.00058   1.00
C3       0.47405    0.33389    0.97668   1.00
C3a      0.46482    0.16597    0.99921   1.00
H1       0.54619    0.27706    1.04267   1.00
H1       0.56305    0.22250    1.00047   1.00
C5       0.55443    0.35590    1.04946   1.00
H1       0.56271    0.15067    1.00111   1.00
H1       0.45388    0.34944    0.95800   1.00
C5       0.42643    0.14465    0.99849   1.00
H1       0.43731    0.22253    0.99956   1.00
H1       0.45366    0.27770    0.95762   1.00
H2       0.41124    0.15163    0.97069   1.00
H2       0.43090    0.11253    0.99914   1.00
N1       0.40233    0.15605    1.03182   1.00
C6       0.38794    0.19190    1.03896   1.00
C6       0.39016    0.13243    1.06078   1.00
C6       0.36646    0.19127    1.07299   1.00
C6       0.36788    0.15344    1.08687   1.00
H3       0.39265    0.21719    1.02060   1.00
H3       0.39715    0.10169    1.06296   1.00
H3       0.35139    0.21564    1.08620   1.00
H3       0.35419    0.14242    1.11306   1.00
H2       0.55035    0.38772    1.04474   1.00
H2       0.54875    0.34999    1.08083   1.00
N1       0.59450    0.34477    1.04029   1.00
C6       0.62483    0.36922    1.02627   1.00
C6       0.61150    0.30715    1.04375   1.00
C6       0.65825    0.34723    1.02152   1.00
C6       0.65006    0.30909    1.03224   1.00
H3       0.62192    0.40008    1.02024   1.00
H3       0.59627    0.28124    1.05348   1.00
H3       0.68604    0.35795    1.01114   1.00
H3       0.67035    0.28495    1.03161   1.00
C4       0.50036    0.49987    0.77085   1.00
C4       0.49964    0.50013    0.72915   1.00
C3       0.52390    0.52602    0.79249   1.00
C3       0.50039    0.53526    0.70748   1.00
C3       0.47679    0.47385    0.79262   1.00
C3       0.49903    0.46502    0.70741   1.00
C2       0.50006    0.50015    0.85518   1.00
C2       0.50006    0.50015    0.64482   1.00
C3a      0.52387    0.52627    0.83401   1.00
C3       0.50058    0.53519    0.66618   1.00
C3       0.47668    0.47405    0.83389   1.00
C3a      0.49921    0.46482    0.66597   1.00
H1       0.54267    0.54619    0.77706   1.00
H1       0.50047    0.56305    0.72250   1.00
C5       0.54946    0.55443    0.85590   1.00
H1       0.50111    0.56271    0.65067   1.00
H1       0.45800    0.45388    0.84944   1.00
C5       0.49849    0.42643    0.64465   1.00
H1       0.49956    0.43731    0.72253   1.00
H1       0.45762    0.45366    0.77770   1.00
H2       0.47069    0.41124    0.65163   1.00
H2       0.49914    0.43090    0.61253   1.00
N1       0.53182    0.40233    0.65605   1.00
C6       0.53896    0.38794    0.69190   1.00
C6       0.56078    0.39016    0.63243   1.00
C6       0.57299    0.36646    0.69127   1.00
C6       0.58687    0.36788    0.65344   1.00
H3       0.52060    0.39265    0.71719   1.00
H3       0.56296    0.39715    0.60169   1.00
H3       0.58620    0.35139    0.71564   1.00
H3       0.61306    0.35419    0.64242   1.00
H2       0.54474    0.55035    0.88772   1.00
H2       0.58083    0.54875    0.84999   1.00
N1       0.54029    0.59450    0.84477   1.00
C6       0.52627    0.62483    0.86922   1.00
C6       0.54375    0.61150    0.80715   1.00
C6       0.52152    0.65825    0.84723   1.00
C6       0.53224    0.65006    0.80909   1.00
H3       0.52024    0.62192    0.90008   1.00
H3       0.55348    0.59627    0.78124   1.00
H3       0.51114    0.68604    0.85795   1.00
H3       0.53161    0.67035    0.78495   1.00
C4       0.50036    1.00013    0.72915   1.00
C4       0.49964    0.99987    0.77085   1.00
C3       0.52390    0.97398    0.70751   1.00
C3       0.50039    0.96474    0.79252   1.00
C3       0.47679    1.02615    0.70738   1.00
C3       0.49903    1.03498    0.79259   1.00
C2       0.50006    0.99985    0.64482   1.00
C2       0.50006    0.99985    0.85518   1.00
C3a      0.52387    0.97373    0.66599   1.00
C3       0.50058    0.96481    0.83382   1.00
C3       0.47668    1.02595    0.66611   1.00
C3a      0.49921    1.03518    0.83403   1.00
H1       0.54267    0.95381    0.72294   1.00
H1       0.50047    0.93695    0.77750   1.00
C5       0.54946    0.94557    0.64410   1.00
H1       0.50111    0.93729    0.84933   1.00
H1       0.45800    1.04612    0.65056   1.00
C5       0.49849    1.07357    0.85535   1.00
H1       0.49956    1.06269    0.77747   1.00
H1       0.45762    1.04634    0.72230   1.00
H2       0.47069    1.08876    0.84837   1.00
H2       0.49914    1.06910    0.88747   1.00
N1       0.53182    1.09767    0.84395   1.00
C6       0.53896    1.11206    0.80810   1.00
C6       0.56078    1.10984    0.86757   1.00
C6       0.57299    1.13354    0.80873   1.00
C6       0.58687    1.13212    0.84656   1.00
H3       0.52060    1.10735    0.78281   1.00
H3       0.56296    1.10285    0.89831   1.00
H3       0.58620    1.14861    0.78436   1.00
H3       0.61306    1.14581    0.85758   1.00
H2       0.54474    0.94965    0.61228   1.00
H2       0.58083    0.95125    0.65001   1.00
N1       0.54029    0.90550    0.65523   1.00
C6       0.52627    0.87517    0.63078   1.00
C6       0.54375    0.88850    0.69285   1.00
C6       0.52152    0.84175    0.65277   1.00
C6       0.53224    0.84994    0.69091   1.00
H3       0.52024    0.87808    0.59992   1.00
H3       0.55348    0.90373    0.71876   1.00
H3       0.51114    0.81396    0.64205   1.00
H3       0.53161    0.82965    0.71505   1.00
C4       0.50013    1.22915    0.50036   1.00
C4       0.49987    1.27085    0.49964   1.00
C3       0.47398    1.20751    0.52390   1.00
C3       0.46474    1.29252    0.50039   1.00
C3       0.52615    1.20738    0.47679   1.00
C3       0.53498    1.29259    0.49903   1.00
C2       0.49985    1.14482    0.50006   1.00
C2       0.49985    1.35518    0.50006   1.00
C3a      0.47373    1.16599    0.52387   1.00
C3       0.46481    1.33382    0.50058   1.00
C3       0.52595    1.16611    0.47668   1.00
C3a      0.53518    1.33403    0.49921   1.00
H1       0.45381    1.22294    0.54267   1.00
H1       0.43695    1.27750    0.50047   1.00
C5       0.44557    1.14410    0.54946   1.00
H1       0.43729    1.34933    0.50111   1.00
H1       0.54612    1.15056    0.45800   1.00
C5       0.57357    1.35535    0.49849   1.00
H1       0.56269    1.27747    0.49956   1.00
H1       0.54634    1.22230    0.45762   1.00
H2       0.58876    1.34837    0.47069   1.00
H2       0.56910    1.38747    0.49914   1.00
N1       0.59767    1.34395    0.53182   1.00
C6       0.61206    1.30810    0.53896   1.00
C6       0.60984    1.36757    0.56078   1.00
C6       0.63354    1.30873    0.57299   1.00
C6       0.63212    1.34656    0.58687   1.00
H3       0.60735    1.28281    0.52060   1.00
H3       0.60285    1.39831    0.56296   1.00
H3       0.64861    1.28436    0.58620   1.00
H3       0.64581    1.35758    0.61306   1.00
H2       0.44965    1.11228    0.54474   1.00
H2       0.45125    1.15001    0.58083   1.00
N1       0.40550    1.15523    0.54029   1.00
C6       0.37517    1.13078    0.52627   1.00
C6       0.38850    1.19285    0.54375   1.00
C6       0.34175    1.15277    0.52152   1.00
C6       0.34994    1.19091    0.53224   1.00
H3       0.37808    1.09992    0.52024   1.00
H3       0.40373    1.21876    0.55348   1.00
H3       0.31396    1.14205    0.51114   1.00
H3       0.32965    1.21505    0.53161   1.00
C4       0.27085    1.00036    0.49987   1.00
C4       0.22915    0.99964    0.50013   1.00
C3       0.29249    1.02390    0.52602   1.00
C3       0.20748    1.00039    0.53526   1.00
C3       0.29262    0.97679    0.47385   1.00
C3       0.20741    0.99903    0.46502   1.00
C2       0.35518    1.00006    0.50015   1.00
C2       0.14482    1.00006    0.50015   1.00
C3a      0.33401    1.02387    0.52627   1.00
C3       0.16618    1.00058    0.53519   1.00
C3       0.33389    0.97668    0.47405   1.00
C3a      0.16597    0.99921    0.46482   1.00
H1       0.27706    1.04267    0.54619   1.00
H1       0.22250    1.00047    0.56305   1.00
C5       0.35590    1.04946    0.55443   1.00
H1       0.15067    1.00111    0.56271   1.00
H1       0.34944    0.95800    0.45388   1.00
C5       0.14465    0.99849    0.42643   1.00
H1       0.22253    0.99956    0.43731   1.00
H1       0.27770    0.95762    0.45366   1.00
H2       0.15163    0.97069    0.41124   1.00
H2       0.11253    0.99914    0.43090   1.00
N1       0.15605    1.03182    0.40233   1.00
C6       0.19190    1.03896    0.38794   1.00
C6       0.13243    1.06078    0.39016   1.00
C6       0.19127    1.07299    0.36646   1.00
C6       0.15344    1.08687    0.36788   1.00
H3       0.21719    1.02060    0.39265   1.00
H3       0.10169    1.06296    0.39715   1.00
H3       0.21564    1.08620    0.35139   1.00
H3       0.14242    1.11306    0.35419   1.00
H2       0.38772    1.04474    0.55035   1.00
H2       0.34999    1.08083    0.54875   1.00
N1       0.34477    1.04029    0.59450   1.00
C6       0.36922    1.02627    0.62483   1.00
C6       0.30715    1.04375    0.61150   1.00
C6       0.34723    1.02152    0.65825   1.00
C6       0.30909    1.03224    0.65006   1.00
H3       0.40008    1.02024    0.62192   1.00
H3       0.28124    1.05348    0.59627   1.00
H3       0.35795    1.01114    0.68604   1.00
H3       0.28495    1.03161    0.67035   1.00
C4       0.72915    1.00036    0.50013   1.00
C4       0.77085    0.99964    0.49987   1.00
C3       0.70751    1.02390    0.47398   1.00
C3       0.79252    1.00039    0.46474   1.00
C3       0.70738    0.97679    0.52615   1.00
C3       0.79259    0.99903    0.53498   1.00
C2       0.64482    1.00006    0.49985   1.00
C2       0.85518    1.00006    0.49985   1.00
C3a      0.66599    1.02387    0.47373   1.00
C3       0.83382    1.00058    0.46481   1.00
C3       0.66611    0.97668    0.52595   1.00
C3a      0.83403    0.99921    0.53518   1.00
H1       0.72294    1.04267    0.45381   1.00
H1       0.77750    1.00047    0.43695   1.00
C5       0.64410    1.04946    0.44557   1.00
H1       0.84933    1.00111    0.43729   1.00
H1       0.65056    0.95800    0.54612   1.00
C5       0.85535    0.99849    0.57357   1.00
H1       0.77747    0.99956    0.56269   1.00
H1       0.72230    0.95762    0.54634   1.00
H2       0.84837    0.97069    0.58876   1.00
H2       0.88747    0.99914    0.56910   1.00
N1       0.84395    1.03182    0.59767   1.00
C6       0.80810    1.03896    0.61206   1.00
C6       0.86757    1.06078    0.60984   1.00
C6       0.80873    1.07299    0.63354   1.00
C6       0.84656    1.08687    0.63212   1.00
H3       0.78281    1.02060    0.60735   1.00
H3       0.89831    1.06296    0.60285   1.00
H3       0.78436    1.08620    0.64861   1.00
H3       0.85758    1.11306    0.64581   1.00
H2       0.61228    1.04474    0.44965   1.00
H2       0.65001    1.08083    0.45125   1.00
N1       0.65523    1.04029    0.40550   1.00
C6       0.63078    1.02627    0.37517   1.00
C6       0.69285    1.04375    0.38850   1.00
C6       0.65277    1.02152    0.34175   1.00
C6       0.69091    1.03224    0.34994   1.00
H3       0.59992    1.02024    0.37808   1.00
H3       0.71876    1.05348    0.40373   1.00
H3       0.64205    1.01114    0.31396   1.00
H3       0.71505    1.03161    0.32965   1.00
C4       0.49987    0.77085    0.50036   1.00
C4       0.50013    0.72915    0.49964   1.00
C3       0.52602    0.79249    0.52390   1.00
C3       0.53526    0.70748    0.50039   1.00
C3       0.47385    0.79262    0.47679   1.00
C3       0.46502    0.70741    0.49903   1.00
C2       0.50015    0.85518    0.50006   1.00
C2       0.50015    0.64482    0.50006   1.00
C3a      0.52627    0.83401    0.52387   1.00
C3       0.53519    0.66618    0.50058   1.00
C3       0.47405    0.83389    0.47668   1.00
C3a      0.46482    0.66597    0.49921   1.00
H1       0.54619    0.77706    0.54267   1.00
H1       0.56305    0.72250    0.50047   1.00
C5       0.55443    0.85590    0.54946   1.00
H1       0.56271    0.65067    0.50111   1.00
H1       0.45388    0.84944    0.45800   1.00
C5       0.42643    0.64465    0.49849   1.00
H1       0.43731    0.72253    0.49956   1.00
H1       0.45366    0.77770    0.45762   1.00
H2       0.41124    0.65163    0.47069   1.00
H2       0.43090    0.61253    0.49914   1.00
N1       0.40233    0.65605    0.53182   1.00
C6       0.38794    0.69190    0.53896   1.00
C6       0.39016    0.63243    0.56078   1.00
C6       0.36646    0.69127    0.57299   1.00
C6       0.36788    0.65344    0.58687   1.00
H3       0.39265    0.71719    0.52060   1.00
H3       0.39715    0.60169    0.56296   1.00
H3       0.35139    0.71564    0.58620   1.00
H3       0.35419    0.64242    0.61306   1.00
H2       0.55035    0.88772    0.54474   1.00
H2       0.54875    0.84999    0.58083   1.00
N1       0.59450    0.84477    0.54029   1.00
C6       0.62483    0.86922    0.52627   1.00
C6       0.61150    0.80715    0.54375   1.00
C6       0.65825    0.84723    0.52152   1.00
C6       0.65006    0.80909    0.53224   1.00
H3       0.62192    0.90008    0.52024   1.00
H3       0.59627    0.78124    0.55348   1.00
H3       0.68604    0.85795    0.51114   1.00
H3       0.67035    0.78495    0.53161   1.00
C4       0.50036    0.99987    0.27085   1.00
C4       0.49964    1.00013    0.22915   1.00
C3       0.52390    1.02602    0.29249   1.00
C3       0.50039    1.03526    0.20748   1.00
C3       0.47679    0.97385    0.29262   1.00
C3       0.49903    0.96502    0.20741   1.00
C2       0.50006    1.00015    0.35518   1.00
C2       0.50006    1.00015    0.14482   1.00
C3a      0.52387    1.02627    0.33401   1.00
C3       0.50058    1.03519    0.16618   1.00
C3       0.47668    0.97405    0.33389   1.00
C3a      0.49921    0.96482    0.16597   1.00
H1       0.54267    1.04619    0.27706   1.00
H1       0.50047    1.06305    0.22250   1.00
C5       0.54946    1.05443    0.35590   1.00
H1       0.50111    1.06271    0.15067   1.00
H1       0.45800    0.95388    0.34944   1.00
C5       0.49849    0.92643    0.14465   1.00
H1       0.49956    0.93731    0.22253   1.00
H1       0.45762    0.95366    0.27770   1.00
H2       0.47069    0.91124    0.15163   1.00
H2       0.49914    0.93090    0.11253   1.00
N1       0.53182    0.90233    0.15605   1.00
C6       0.53896    0.88794    0.19190   1.00
C6       0.56078    0.89016    0.13243   1.00
C6       0.57299    0.86646    0.19127   1.00
C6       0.58687    0.86788    0.15344   1.00
H3       0.52060    0.89265    0.21719   1.00
H3       0.56296    0.89715    0.10169   1.00
H3       0.58620    0.85139    0.21564   1.00
H3       0.61306    0.85419    0.14242   1.00
H2       0.54474    1.05035    0.38772   1.00
H2       0.58083    1.04875    0.34999   1.00
N1       0.54029    1.09450    0.34477   1.00
C6       0.52627    1.12483    0.36922   1.00
C6       0.54375    1.11150    0.30715   1.00
C6       0.52152    1.15825    0.34723   1.00
C6       0.53224    1.15006    0.30909   1.00
H3       0.52024    1.12192    0.40008   1.00
H3       0.55348    1.09627    0.28124   1.00
H3       0.51114    1.18604    0.35795   1.00
H3       0.53161    1.17035    0.28495   1.00
C4       1.00036    0.50013    0.72915   1.00
C4       0.99964    0.49987    0.77085   1.00
C3       1.02390    0.47398    0.70751   1.00
C3       1.00039    0.46474    0.79252   1.00
C3       0.97679    0.52615    0.70738   1.00
C3       0.99903    0.53498    0.79259   1.00
C2       1.00006    0.49985    0.64482   1.00
C2       1.00006    0.49985    0.85518   1.00
C3a      1.02387    0.47373    0.66599   1.00
C3       1.00058    0.46481    0.83382   1.00
C3       0.97668    0.52595    0.66611   1.00
C3a      0.99921    0.53518    0.83403   1.00
H1       1.04267    0.45381    0.72294   1.00
H1       1.00047    0.43695    0.77750   1.00
C5       1.04946    0.44557    0.64410   1.00
H1       1.00111    0.43729    0.84933   1.00
H1       0.95800    0.54612    0.65056   1.00
C5       0.99849    0.57357    0.85535   1.00
H1       0.99956    0.56269    0.77747   1.00
H1       0.95762    0.54634    0.72230   1.00
H2       0.97069    0.58876    0.84837   1.00
H2       0.99914    0.56910    0.88747   1.00
N1       1.03182    0.59767    0.84395   1.00
C6       1.03896    0.61206    0.80810   1.00
C6       1.06078    0.60984    0.86757   1.00
C6       1.07299    0.63354    0.80873   1.00
C6       1.08687    0.63212    0.84656   1.00
H3       1.02060    0.60735    0.78281   1.00
H3       1.06296    0.60285    0.89831   1.00
H3       1.08620    0.64861    0.78436   1.00
H3       1.11306    0.64581    0.85758   1.00
H2       1.04474    0.44965    0.61228   1.00
H2       1.08083    0.45125    0.65001   1.00
N1       1.04029    0.40550    0.65523   1.00
C6       1.02627    0.37517    0.63078   1.00
C6       1.04375    0.38850    0.69285   1.00
C6       1.02152    0.34175    0.65277   1.00
C6       1.03224    0.34994    0.69091   1.00
H3       1.02024    0.37808    0.59992   1.00
H3       1.05348    0.40373    0.71876   1.00
H3       1.01114    0.31396    0.64205   1.00
H3       1.03161    0.32965    0.71505   1.00
C4       1.00013    0.72915    0.50036   1.00
C4       0.99987    0.77085    0.49964   1.00
C3       0.97398    0.70751    0.52390   1.00
C3       0.96474    0.79252    0.50039   1.00
C3       1.02615    0.70738    0.47679   1.00
C3       1.03498    0.79259    0.49903   1.00
C2       0.99985    0.64482    0.50006   1.00
C2       0.99985    0.85518    0.50006   1.00
C3a      0.97373    0.66599    0.52387   1.00
C3       0.96481    0.83382    0.50058   1.00
C3       1.02595    0.66611    0.47668   1.00
C3a      1.03518    0.83403    0.49921   1.00
H1       0.95381    0.72294    0.54267   1.00
H1       0.93695    0.77750    0.50047   1.00
C5       0.94557    0.64410    0.54946   1.00
H1       0.93729    0.84933    0.50111   1.00
H1       1.04612    0.65056    0.45800   1.00
C5       1.07357    0.85535    0.49849   1.00
H1       1.06269    0.77747    0.49956   1.00
H1       1.04634    0.72230    0.45762   1.00
H2       1.08876    0.84837    0.47069   1.00
H2       1.06910    0.88747    0.49914   1.00
N1       1.09767    0.84395    0.53182   1.00
C6       1.11206    0.80810    0.53896   1.00
C6       1.10984    0.86757    0.56078   1.00
C6       1.13354    0.80873    0.57299   1.00
C6       1.13212    0.84656    0.58687   1.00
H3       1.10735    0.78281    0.52060   1.00
H3       1.10285    0.89831    0.56296   1.00
H3       1.14861    0.78436    0.58620   1.00
H3       1.14581    0.85758    0.61306   1.00
H2       0.94965    0.61228    0.54474   1.00
H2       0.95125    0.65001    0.58083   1.00
N1       0.90550    0.65523    0.54029   1.00
C6       0.87517    0.63078    0.52627   1.00
C6       0.88850    0.69285    0.54375   1.00
C6       0.84175    0.65277    0.52152   1.00
C6       0.84994    0.69091    0.53224   1.00
H3       0.87808    0.59992    0.52024   1.00
H3       0.90373    0.71876    0.55348   1.00
H3       0.81396    0.64205    0.51114   1.00
H3       0.82965    0.71505    0.53161   1.00
C4       0.77085    0.50036    0.49987   1.00
C4       0.72915    0.49964    0.50013   1.00
C3       0.79249    0.52390    0.52602   1.00
C3       0.70748    0.50039    0.53526   1.00
C3       0.79262    0.47679    0.47385   1.00
C3       0.70741    0.49903    0.46502   1.00
C2       0.85518    0.50006    0.50015   1.00
C2       0.64482    0.50006    0.50015   1.00
C3a      0.83401    0.52387    0.52627   1.00
C3       0.66618    0.50058    0.53519   1.00
C3       0.83389    0.47668    0.47405   1.00
C3a      0.66597    0.49921    0.46482   1.00
H1       0.77706    0.54267    0.54619   1.00
H1       0.72250    0.50047    0.56305   1.00
C5       0.85590    0.54946    0.55443   1.00
H1       0.65067    0.50111    0.56271   1.00
H1       0.84944    0.45800    0.45388   1.00
C5       0.64465    0.49849    0.42643   1.00
H1       0.72253    0.49956    0.43731   1.00
H1       0.77770    0.45762    0.45366   1.00
H2       0.65163    0.47069    0.41124   1.00
H2       0.61253    0.49914    0.43090   1.00
N1       0.65605    0.53182    0.40233   1.00
C6       0.69190    0.53896    0.38794   1.00
C6       0.63243    0.56078    0.39016   1.00
C6       0.69127    0.57299    0.36646   1.00
C6       0.65344    0.58687    0.36788   1.00
H3       0.71719    0.52060    0.39265   1.00
H3       0.60169    0.56296    0.39715   1.00
H3       0.71564    0.58620    0.35139   1.00
H3       0.64242    0.61306    0.35419   1.00
H2       0.88772    0.54474    0.55035   1.00
H2       0.84999    0.58083    0.54875   1.00
N1       0.84477    0.54029    0.59450   1.00
C6       0.86922    0.52627    0.62483   1.00
C6       0.80715    0.54375    0.61150   1.00
C6       0.84723    0.52152    0.65825   1.00
C6       0.80909    0.53224    0.65006   1.00
H3       0.90008    0.52024    0.62192   1.00
H3       0.78124    0.55348    0.59627   1.00
H3       0.85795    0.51114    0.68604   1.00
H3       0.78495    0.53161    0.67035   1.00
C4       1.22915    0.50036    0.50013   1.00
C4       1.27085    0.49964    0.49987   1.00
C3       1.20751    0.52390    0.47398   1.00
C3       1.29252    0.50039    0.46474   1.00
C3       1.20738    0.47679    0.52615   1.00
C3       1.29259    0.49903    0.53498   1.00
C2       1.14482    0.50006    0.49985   1.00
C2       1.35518    0.50006    0.49985   1.00
C3a      1.16599    0.52387    0.47373   1.00
C3       1.33382    0.50058    0.46481   1.00
C3       1.16611    0.47668    0.52595   1.00
C3a      1.33403    0.49921    0.53518   1.00
H1       1.22294    0.54267    0.45381   1.00
H1       1.27750    0.50047    0.43695   1.00
C5       1.14410    0.54946    0.44557   1.00
H1       1.34933    0.50111    0.43729   1.00
H1       1.15056    0.45800    0.54612   1.00
C5       1.35535    0.49849    0.57357   1.00
H1       1.27747    0.49956    0.56269   1.00
H1       1.22230    0.45762    0.54634   1.00
H2       1.34837    0.47069    0.58876   1.00
H2       1.38747    0.49914    0.56910   1.00
N1       1.34395    0.53182    0.59767   1.00
C6       1.30810    0.53896    0.61206   1.00
C6       1.36757    0.56078    0.60984   1.00
C6       1.30873    0.57299    0.63354   1.00
C6       1.34656    0.58687    0.63212   1.00
H3       1.28281    0.52060    0.60735   1.00
H3       1.39831    0.56296    0.60285   1.00
H3       1.28436    0.58620    0.64861   1.00
H3       1.35758    0.61306    0.64581   1.00
H2       1.11228    0.54474    0.44965   1.00
H2       1.15001    0.58083    0.45125   1.00
N1       1.15523    0.54029    0.40550   1.00
C6       1.13078    0.52627    0.37517   1.00
C6       1.19285    0.54375    0.38850   1.00
C6       1.15277    0.52152    0.34175   1.00
C6       1.19091    0.53224    0.34994   1.00
H3       1.09992    0.52024    0.37808   1.00
H3       1.21876    0.55348    0.40373   1.00
H3       1.14205    0.51114    0.31396   1.00
H3       1.21505    0.53161    0.32965   1.00
C4       0.99987    0.27085    0.50036   1.00
C4       1.00013    0.22915    0.49964   1.00
C3       1.02602    0.29249    0.52390   1.00
C3       1.03526    0.20748    0.50039   1.00
C3       0.97385    0.29262    0.47679   1.00
C3       0.96502    0.20741    0.49903   1.00
C2       1.00015    0.35518    0.50006   1.00
C2       1.00015    0.14482    0.50006   1.00
C3a      1.02627    0.33401    0.52387   1.00
C3       1.03519    0.16618    0.50058   1.00
C3       0.97405    0.33389    0.47668   1.00
C3a      0.96482    0.16597    0.49921   1.00
H1       1.04619    0.27706    0.54267   1.00
H1       1.06305    0.22250    0.50047   1.00
C5       1.05443    0.35590    0.54946   1.00
H1       1.06271    0.15067    0.50111   1.00
H1       0.95388    0.34944    0.45800   1.00
C5       0.92643    0.14465    0.49849   1.00
H1       0.93731    0.22253    0.49956   1.00
H1       0.95366    0.27770    0.45762   1.00
H2       0.91124    0.15163    0.47069   1.00
H2       0.93090    0.11253    0.49914   1.00
N1       0.90233    0.15605    0.53182   1.00
C6       0.88794    0.19190    0.53896   1.00
C6       0.89016    0.13243    0.56078   1.00
C6       0.86646    0.19127    0.57299   1.00
C6       0.86788    0.15344    0.58687   1.00
H3       0.89265    0.21719    0.52060   1.00
H3       0.89715    0.10169    0.56296   1.00
H3       0.85139    0.21564    0.58620   1.00
H3       0.85419    0.14242    0.61306   1.00
H2       1.05035    0.38772    0.54474   1.00
H2       1.04875    0.34999    0.58083   1.00
N1       1.09450    0.34477    0.54029   1.00
C6       1.12483    0.36922    0.52627   1.00
C6       1.11150    0.30715    0.54375   1.00
C6       1.15825    0.34723    0.52152   1.00
C6       1.15006    0.30909    0.53224   1.00
H3       1.12192    0.40008    0.52024   1.00
H3       1.09627    0.28124    0.55348   1.00
H3       1.18604    0.35795    0.51114   1.00
H3       1.17035    0.28495    0.53161   1.00
C4       1.00036    0.49987    0.27085   1.00
C4       0.99964    0.50013    0.22915   1.00
C3       1.02390    0.52602    0.29249   1.00
C3       1.00039    0.53526    0.20748   1.00
C3       0.97679    0.47385    0.29262   1.00
C3       0.99903    0.46502    0.20741   1.00
C2       1.00006    0.50015    0.35518   1.00
C2       1.00006    0.50015    0.14482   1.00
C3a      1.02387    0.52627    0.33401   1.00
C3       1.00058    0.53519    0.16618   1.00
C3       0.97668    0.47405    0.33389   1.00
C3a      0.99921    0.46482    0.16597   1.00
H1       1.04267    0.54619    0.27706   1.00
H1       1.00047    0.56305    0.22250   1.00
C5       1.04946    0.55443    0.35590   1.00
H1       1.00111    0.56271    0.15067   1.00
H1       0.95800    0.45388    0.34944   1.00
C5       0.99849    0.42643    0.14465   1.00
H1       0.99956    0.43731    0.22253   1.00
H1       0.95762    0.45366    0.27770   1.00
H2       0.97069    0.41124    0.15163   1.00
H2       0.99914    0.43090    0.11253   1.00
N1       1.03182    0.40233    0.15605   1.00
C6       1.03896    0.38794    0.19190   1.00
C6       1.06078    0.39016    0.13243   1.00
C6       1.07299    0.36646    0.19127   1.00
C6       1.08687    0.36788    0.15344   1.00
H3       1.02060    0.39265    0.21719   1.00
H3       1.06296    0.39715    0.10169   1.00
H3       1.08620    0.35139    0.21564   1.00
H3       1.11306    0.35419    0.14242   1.00
H2       1.04474    0.55035    0.38772   1.00
H2       1.08083    0.54875    0.34999   1.00
N1       1.04029    0.59450    0.34477   1.00
C6       1.02627    0.62483    0.36922   1.00
C6       1.04375    0.61150    0.30715   1.00
C6       1.02152    0.65825    0.34723   1.00
C6       1.03224    0.65006    0.30909   1.00
H3       1.02024    0.62192    0.40008   1.00
H3       1.05348    0.59627    0.28124   1.00
H3       1.01114    0.68604    0.35795   1.00
H3       1.03161    0.67035    0.28495   1.00
