data_IRMOF10_SG202_interpen_Ligand4lp_label_v.

_audit_creation_method             'generated by an auxiliary program of Tobunporous'

_symmetry_space_group_name_H-M     'P 1'
_symmetry_Int_Tables_number        1
_symmetry_cell_setting             triclinic

_cell_length_a                    34.2800
_cell_length_b                    34.2800
_cell_length_c                    34.2800
_cell_angle_alpha                 90.0000
_cell_angle_beta                  90.0000
_cell_angle_gamma                 90.0000

loop_
_atom_site_label
_atom_site_fract_x
_atom_site_fract_y
_atom_site_fract_z
_atom_site_occupancy
O1       0.75000    0.75000    0.75000   1.00
Zn1      0.71720    0.78280    0.78280   1.00
Zn1      0.78280    0.71720    0.78280   1.00
Zn1      0.78280    0.78280    0.71720   1.00
Zn1      0.71720    0.71720    0.71720   1.00
O2       0.72650    0.77350    0.83820   1.00
O2       0.72650    0.83820    0.77350   1.00
O2       0.66180    0.77350    0.77350   1.00
O2       0.77350    0.72650    0.83820   1.00
O2       0.83820    0.72650    0.77350   1.00
O2       0.77350    0.66180    0.77350   1.00
O2       0.77350    0.83820    0.72650   1.00
O2       0.83820    0.77350    0.72650   1.00
O2       0.77350    0.77350    0.66180   1.00
O2       0.66180    0.72650    0.72650   1.00
O2       0.72650    0.66180    0.72650   1.00
O2       0.72650    0.72650    0.66180   1.00
C1       0.75000    0.75000    0.85520   1.00
C1       0.75000    0.85520    0.75000   1.00
C1       0.64480    0.75000    0.75000   1.00
C1       0.85520    0.75000    0.75000   1.00
C1       0.75000    0.64480    0.75000   1.00
C1       0.75000    0.75000    0.64480   1.00
O1       0.25000    0.25000    0.75000   1.00
Zn1      0.21720    0.28280    0.78280   1.00
Zn1      0.28280    0.21720    0.78280   1.00
Zn1      0.28280    0.28280    0.71720   1.00
Zn1      0.21720    0.21720    0.71720   1.00
O2       0.22650    0.27350    0.83820   1.00
O2       0.22650    0.33820    0.77350   1.00
O2       0.16180    0.27350    0.77350   1.00
O2       0.27350    0.22650    0.83820   1.00
O2       0.33820    0.22650    0.77350   1.00
O2       0.27350    0.16180    0.77350   1.00
O2       0.27350    0.33820    0.72650   1.00
O2       0.33820    0.27350    0.72650   1.00
O2       0.27350    0.27350    0.66180   1.00
O2       0.16180    0.22650    0.72650   1.00
O2       0.22650    0.16180    0.72650   1.00
O2       0.22650    0.22650    0.66180   1.00
C1       0.25000    0.25000    0.85520   1.00
C1       0.25000    0.35520    0.75000   1.00
C1       0.14480    0.25000    0.75000   1.00
C1       0.35520    0.25000    0.75000   1.00
C1       0.25000    0.14480    0.75000   1.00
C1       0.25000    0.25000    0.64480   1.00
O1       0.25000    0.75000    0.25000   1.00
Zn1      0.21720    0.78280    0.28280   1.00
Zn1      0.28280    0.71720    0.28280   1.00
Zn1      0.28280    0.78280    0.21720   1.00
Zn1      0.21720    0.71720    0.21720   1.00
O2       0.22650    0.77350    0.33820   1.00
O2       0.22650    0.83820    0.27350   1.00
O2       0.16180    0.77350    0.27350   1.00
O2       0.27350    0.72650    0.33820   1.00
O2       0.33820    0.72650    0.27350   1.00
O2       0.27350    0.66180    0.27350   1.00
O2       0.27350    0.83820    0.22650   1.00
O2       0.33820    0.77350    0.22650   1.00
O2       0.27350    0.77350    0.16180   1.00
O2       0.16180    0.72650    0.22650   1.00
O2       0.22650    0.66180    0.22650   1.00
O2       0.22650    0.72650    0.16180   1.00
C1       0.25000    0.75000    0.35520   1.00
C1       0.25000    0.85520    0.25000   1.00
C1       0.14480    0.75000    0.25000   1.00
C1       0.35520    0.75000    0.25000   1.00
C1       0.25000    0.64480    0.25000   1.00
C1       0.25000    0.75000    0.14480   1.00
O1       0.75000    0.25000    0.25000   1.00
Zn1      0.71720    0.28280    0.28280   1.00
Zn1      0.78280    0.21720    0.28280   1.00
Zn1      0.78280    0.28280    0.21720   1.00
Zn1      0.71720    0.21720    0.21720   1.00
O2       0.72650    0.27350    0.33820   1.00
O2       0.72650    0.33820    0.27350   1.00
O2       0.66180    0.27350    0.27350   1.00
O2       0.77350    0.22650    0.33820   1.00
O2       0.83820    0.22650    0.27350   1.00
O2       0.77350    0.16180    0.27350   1.00
O2       0.77350    0.33820    0.22650   1.00
O2       0.83820    0.27350    0.22650   1.00
O2       0.77350    0.27350    0.16180   1.00
O2       0.66180    0.22650    0.22650   1.00
O2       0.72650    0.16180    0.22650   1.00
O2       0.72650    0.22650    0.16180   1.00
C1       0.75000    0.25000    0.35520   1.00
C1       0.75000    0.35520    0.25000   1.00
C1       0.64480    0.25000    0.25000   1.00
C1       0.85520    0.25000    0.25000   1.00
C1       0.75000    0.14480    0.25000   1.00
C1       0.75000    0.25000    0.14480   1.00
O1       0.25000    0.25000    0.25000   1.00
Zn1      0.28280    0.21720    0.21720   1.00
Zn1      0.21720    0.28280    0.21720   1.00
Zn1      0.21720    0.21720    0.28280   1.00
Zn1      0.28280    0.28280    0.28280   1.00
O2       0.27350    0.22650    0.16180   1.00
O2       0.27350    0.16180    0.22650   1.00
O2       0.33820    0.22650    0.22650   1.00
O2       0.22650    0.27350    0.16180   1.00
O2       0.16180    0.27350    0.22650   1.00
O2       0.22650    0.33820    0.22650   1.00
O2       0.22650    0.16180    0.27350   1.00
O2       0.16180    0.22650    0.27350   1.00
O2       0.22650    0.22650    0.33820   1.00
O2       0.33820    0.27350    0.27350   1.00
O2       0.27350    0.33820    0.27350   1.00
O2       0.27350    0.27350    0.33820   1.00
C1       0.25000    0.25000    0.14480   1.00
C1       0.25000    0.14480    0.25000   1.00
C1       0.35520    0.25000    0.25000   1.00
C1       0.14480    0.25000    0.25000   1.00
C1       0.25000    0.35520    0.25000   1.00
C1       0.25000    0.25000    0.35520   1.00
O1       0.75000    0.75000    0.25000   1.00
Zn1      0.78280    0.71720    0.21720   1.00
Zn1      0.71720    0.78280    0.21720   1.00
Zn1      0.71720    0.71720    0.28280   1.00
Zn1      0.78280    0.78280    0.28280   1.00
O2       0.77350    0.72650    0.16180   1.00
O2       0.77350    0.66180    0.22650   1.00
O2       0.83820    0.72650    0.22650   1.00
O2       0.72650    0.77350    0.16180   1.00
O2       0.66180    0.77350    0.22650   1.00
O2       0.72650    0.83820    0.22650   1.00
O2       0.72650    0.66180    0.27350   1.00
O2       0.66180    0.72650    0.27350   1.00
O2       0.72650    0.72650    0.33820   1.00
O2       0.83820    0.77350    0.27350   1.00
O2       0.77350    0.83820    0.27350   1.00
O2       0.77350    0.77350    0.33820   1.00
C1       0.75000    0.75000    0.14480   1.00
C1       0.75000    0.64480    0.25000   1.00
C1       0.85520    0.75000    0.25000   1.00
C1       0.64480    0.75000    0.25000   1.00
C1       0.75000    0.85520    0.25000   1.00
C1       0.75000    0.75000    0.35520   1.00
O1       0.75000    0.25000    0.75000   1.00
Zn1      0.78280    0.21720    0.71720   1.00
Zn1      0.71720    0.28280    0.71720   1.00
Zn1      0.71720    0.21720    0.78280   1.00
Zn1      0.78280    0.28280    0.78280   1.00
O2       0.77350    0.22650    0.66180   1.00
O2       0.77350    0.16180    0.72650   1.00
O2       0.83820    0.22650    0.72650   1.00
O2       0.72650    0.27350    0.66180   1.00
O2       0.66180    0.27350    0.72650   1.00
O2       0.72650    0.33820    0.72650   1.00
O2       0.72650    0.16180    0.77350   1.00
O2       0.66180    0.22650    0.77350   1.00
O2       0.72650    0.22650    0.83820   1.00
O2       0.83820    0.27350    0.77350   1.00
O2       0.77350    0.33820    0.77350   1.00
O2       0.77350    0.27350    0.83820   1.00
C1       0.75000    0.25000    0.64480   1.00
C1       0.75000    0.14480    0.75000   1.00
C1       0.85520    0.25000    0.75000   1.00
C1       0.64480    0.25000    0.75000   1.00
C1       0.75000    0.35520    0.75000   1.00
C1       0.75000    0.25000    0.85520   1.00
O1       0.25000    0.75000    0.75000   1.00
Zn1      0.28280    0.71720    0.71720   1.00
Zn1      0.21720    0.78280    0.71720   1.00
Zn1      0.21720    0.71720    0.78280   1.00
Zn1      0.28280    0.78280    0.78280   1.00
O2       0.27350    0.72650    0.66180   1.00
O2       0.27350    0.66180    0.72650   1.00
O2       0.33820    0.72650    0.72650   1.00
O2       0.22650    0.77350    0.66180   1.00
O2       0.16180    0.77350    0.72650   1.00
O2       0.22650    0.83820    0.72650   1.00
O2       0.22650    0.66180    0.77350   1.00
O2       0.16180    0.72650    0.77350   1.00
O2       0.22650    0.72650    0.83820   1.00
O2       0.33820    0.77350    0.77350   1.00
O2       0.27350    0.83820    0.77350   1.00
O2       0.27350    0.77350    0.83820   1.00
C1       0.25000    0.75000    0.64480   1.00
C1       0.25000    0.64480    0.75000   1.00
C1       0.35520    0.75000    0.75000   1.00
C1       0.14480    0.75000    0.75000   1.00
C1       0.25000    0.85520    0.75000   1.00
C1       0.25000    0.75000    0.85520   1.00
O1       1.00000    1.00000    1.00000   1.00
Zn1      0.96720    1.03280    1.03280   1.00
Zn1      1.03280    0.96720    1.03280   1.00
Zn1      1.03280    1.03280    0.96720   1.00
Zn1      0.96720    0.96720    0.96720   1.00
O2       0.97650    1.02350    1.08820   1.00
O2       0.97650    1.08820    1.02350   1.00
O2       0.91180    1.02350    1.02350   1.00
O2       1.02350    0.97650    1.08820   1.00
O2       1.08820    0.97650    1.02350   1.00
O2       1.02350    0.91180    1.02350   1.00
O2       1.02350    1.08820    0.97650   1.00
O2       1.08820    1.02350    0.97650   1.00
O2       1.02350    1.02350    0.91180   1.00
O2       0.91180    0.97650    0.97650   1.00
O2       0.97650    0.91180    0.97650   1.00
O2       0.97650    0.97650    0.91180   1.00
C1       1.00000    1.00000    1.10520   1.00
C1       1.00000    1.10520    1.00000   1.00
C1       0.89480    1.00000    1.00000   1.00
C1       1.10520    1.00000    1.00000   1.00
C1       1.00000    0.89480    1.00000   1.00
C1       1.00000    1.00000    0.89480   1.00
O1       0.50000    0.50000    1.00000   1.00
Zn1      0.46720    0.53280    1.03280   1.00
Zn1      0.53280    0.46720    1.03280   1.00
Zn1      0.53280    0.53280    0.96720   1.00
Zn1      0.46720    0.46720    0.96720   1.00
O2       0.47650    0.52350    1.08820   1.00
O2       0.47650    0.58820    1.02350   1.00
O2       0.41180    0.52350    1.02350   1.00
O2       0.52350    0.47650    1.08820   1.00
O2       0.58820    0.47650    1.02350   1.00
O2       0.52350    0.41180    1.02350   1.00
O2       0.52350    0.58820    0.97650   1.00
O2       0.58820    0.52350    0.97650   1.00
O2       0.52350    0.52350    0.91180   1.00
O2       0.41180    0.47650    0.97650   1.00
O2       0.47650    0.41180    0.97650   1.00
O2       0.47650    0.47650    0.91180   1.00
C1       0.50000    0.50000    1.10520   1.00
C1       0.50000    0.60520    1.00000   1.00
C1       0.39480    0.50000    1.00000   1.00
C1       0.60520    0.50000    1.00000   1.00
C1       0.50000    0.39480    1.00000   1.00
C1       0.50000    0.50000    0.89480   1.00
O1       0.50000    1.00000    0.50000   1.00
Zn1      0.46720    1.03280    0.53280   1.00
Zn1      0.53280    0.96720    0.53280   1.00
Zn1      0.53280    1.03280    0.46720   1.00
Zn1      0.46720    0.96720    0.46720   1.00
O2       0.47650    1.02350    0.58820   1.00
O2       0.47650    1.08820    0.52350   1.00
O2       0.41180    1.02350    0.52350   1.00
O2       0.52350    0.97650    0.58820   1.00
O2       0.58820    0.97650    0.52350   1.00
O2       0.52350    0.91180    0.52350   1.00
O2       0.52350    1.08820    0.47650   1.00
O2       0.58820    1.02350    0.47650   1.00
O2       0.52350    1.02350    0.41180   1.00
O2       0.41180    0.97650    0.47650   1.00
O2       0.47650    0.91180    0.47650   1.00
O2       0.47650    0.97650    0.41180   1.00
C1       0.50000    1.00000    0.60520   1.00
C1       0.50000    1.10520    0.50000   1.00
C1       0.39480    1.00000    0.50000   1.00
C1       0.60520    1.00000    0.50000   1.00
C1       0.50000    0.89480    0.50000   1.00
C1       0.50000    1.00000    0.39480   1.00
O1       1.00000    0.50000    0.50000   1.00
Zn1      0.96720    0.53280    0.53280   1.00
Zn1      1.03280    0.46720    0.53280   1.00
Zn1      1.03280    0.53280    0.46720   1.00
Zn1      0.96720    0.46720    0.46720   1.00
O2       0.97650    0.52350    0.58820   1.00
O2       0.97650    0.58820    0.52350   1.00
O2       0.91180    0.52350    0.52350   1.00
O2       1.02350    0.47650    0.58820   1.00
O2       1.08820    0.47650    0.52350   1.00
O2       1.02350    0.41180    0.52350   1.00
O2       1.02350    0.58820    0.47650   1.00
O2       1.08820    0.52350    0.47650   1.00
O2       1.02350    0.52350    0.41180   1.00
O2       0.91180    0.47650    0.47650   1.00
O2       0.97650    0.41180    0.47650   1.00
O2       0.97650    0.47650    0.41180   1.00
C1       1.00000    0.50000    0.60520   1.00
C1       1.00000    0.60520    0.50000   1.00
C1       0.89480    0.50000    0.50000   1.00
C1       1.10520    0.50000    0.50000   1.00
C1       1.00000    0.39480    0.50000   1.00
C1       1.00000    0.50000    0.39480   1.00
O1       0.50000    0.50000    0.50000   1.00
Zn1      0.53280    0.46720    0.46720   1.00
Zn1      0.46720    0.53280    0.46720   1.00
Zn1      0.46720    0.46720    0.53280   1.00
Zn1      0.53280    0.53280    0.53280   1.00
O2       0.52350    0.47650    0.41180   1.00
O2       0.52350    0.41180    0.47650   1.00
O2       0.58820    0.47650    0.47650   1.00
O2       0.47650    0.52350    0.41180   1.00
O2       0.41180    0.52350    0.47650   1.00
O2       0.47650    0.58820    0.47650   1.00
O2       0.47650    0.41180    0.52350   1.00
O2       0.41180    0.47650    0.52350   1.00
O2       0.47650    0.47650    0.58820   1.00
O2       0.58820    0.52350    0.52350   1.00
O2       0.52350    0.58820    0.52350   1.00
O2       0.52350    0.52350    0.58820   1.00
C1       0.50000    0.50000    0.39480   1.00
C1       0.50000    0.39480    0.50000   1.00
C1       0.60520    0.50000    0.50000   1.00
C1       0.39480    0.50000    0.50000   1.00
C1       0.50000    0.60520    0.50000   1.00
C1       0.50000    0.50000    0.60520   1.00
O1       1.00000    1.00000    0.50000   1.00
Zn1      1.03280    0.96720    0.46720   1.00
Zn1      0.96720    1.03280    0.46720   1.00
Zn1      0.96720    0.96720    0.53280   1.00
Zn1      1.03280    1.03280    0.53280   1.00
O2       1.02350    0.97650    0.41180   1.00
O2       1.02350    0.91180    0.47650   1.00
O2       1.08820    0.97650    0.47650   1.00
O2       0.97650    1.02350    0.41180   1.00
O2       0.91180    1.02350    0.47650   1.00
O2       0.97650    1.08820    0.47650   1.00
O2       0.97650    0.91180    0.52350   1.00
O2       0.91180    0.97650    0.52350   1.00
O2       0.97650    0.97650    0.58820   1.00
O2       1.08820    1.02350    0.52350   1.00
O2       1.02350    1.08820    0.52350   1.00
O2       1.02350    1.02350    0.58820   1.00
C1       1.00000    1.00000    0.39480   1.00
C1       1.00000    0.89480    0.50000   1.00
C1       1.10520    1.00000    0.50000   1.00
C1       0.89480    1.00000    0.50000   1.00
C1       1.00000    1.10520    0.50000   1.00
C1       1.00000    1.00000    0.60520   1.00
O1       1.00000    0.50000    1.00000   1.00
Zn1      1.03280    0.46720    0.96720   1.00
Zn1      0.96720    0.53280    0.96720   1.00
Zn1      0.96720    0.46720    1.03280   1.00
Zn1      1.03280    0.53280    1.03280   1.00
O2       1.02350    0.47650    0.91180   1.00
O2       1.02350    0.41180    0.97650   1.00
O2       1.08820    0.47650    0.97650   1.00
O2       0.97650    0.52350    0.91180   1.00
O2       0.91180    0.52350    0.97650   1.00
O2       0.97650    0.58820    0.97650   1.00
O2       0.97650    0.41180    1.02350   1.00
O2       0.91180    0.47650    1.02350   1.00
O2       0.97650    0.47650    1.08820   1.00
O2       1.08820    0.52350    1.02350   1.00
O2       1.02350    0.58820    1.02350   1.00
O2       1.02350    0.52350    1.08820   1.00
C1       1.00000    0.50000    0.89480   1.00
C1       1.00000    0.39480    1.00000   1.00
C1       1.10520    0.50000    1.00000   1.00
C1       0.89480    0.50000    1.00000   1.00
C1       1.00000    0.60520    1.00000   1.00
C1       1.00000    0.50000    1.10520   1.00
O1       0.50000    1.00000    1.00000   1.00
Zn1      0.53280    0.96720    0.96720   1.00
Zn1      0.46720    1.03280    0.96720   1.00
Zn1      0.46720    0.96720    1.03280   1.00
Zn1      0.53280    1.03280    1.03280   1.00
O2       0.52350    0.97650    0.91180   1.00
O2       0.52350    0.91180    0.97650   1.00
O2       0.58820    0.97650    0.97650   1.00
O2       0.47650    1.02350    0.91180   1.00
O2       0.41180    1.02350    0.97650   1.00
O2       0.47650    1.08820    0.97650   1.00
O2       0.47650    0.91180    1.02350   1.00
O2       0.41180    0.97650    1.02350   1.00
O2       0.47650    0.97650    1.08820   1.00
O2       0.58820    1.02350    1.02350   1.00
O2       0.52350    1.08820    1.02350   1.00
O2       0.52350    1.02350    1.08820   1.00
C1       0.50000    1.00000    0.89480   1.00
C1       0.50000    0.89480    1.00000   1.00
C1       0.60520    1.00000    1.00000   1.00
C1       0.39480    1.00000    1.00000   1.00
C1       0.50000    1.10520    1.00000   1.00
C1       0.50000    1.00000    1.10520   1.00
C4       0.75420    0.75230    0.98025   1.00
C4       0.75561    0.75166    1.02191   1.00
C3       0.73920    0.78473    0.95897   1.00
C3       0.74599    0.78484    1.04504   1.00
C3       0.76815    0.71950    0.95854   1.00
C3       0.76707    0.71675    1.04170   1.00
C2       0.75310    0.75445    0.89595   1.00
C2       0.75659    0.74981    1.10622   1.00
C3       0.73882    0.78592    0.91811   1.00
C3       0.74625    0.78397    1.08591   1.00
C3       0.76745    0.72197    0.91696   1.00
C3       0.76675    0.71700    1.08336   1.00
H1       0.72763    0.80854    0.97237   1.00
H1       0.73880    0.81102    1.03306   1.00
C5       0.78207    0.68536    0.97835   1.00
C5       0.77865    0.68291    1.01998   1.00
H1       0.72776    0.81022    0.90451   1.00
H1       0.73886    0.80884    1.10091   1.00
H1       0.77736    0.69934    0.90052   1.00
H1       0.77446    0.69266    1.09848   1.00
C6       0.80056    0.65262    0.95515   1.00
C6       0.78668    0.64498    1.04119   1.00
H2       0.82019    0.66507    0.93345   1.00
H2       0.76411    0.64037    1.06310   1.00
H2       0.82059    0.63556    0.97286   1.00
H2       0.78248    0.61986    1.02228   1.00
C6       0.76993    0.62451    0.93606   1.00
C6       0.82859    0.64304    1.05942   1.00
H2       0.74645    0.64165    0.92292   1.00
H2       0.83525    0.67071    1.07383   1.00
C6       0.78504    0.59505    0.90459   1.00
C6       0.83715    0.60939    1.08911   1.00
H2       0.75609    0.60790    0.95949   1.00
H2       0.84950    0.64080    1.03546   1.00
C6       0.79954    0.61632    0.86735   1.00
C6       0.81294    0.61401    1.12708   1.00
C6       0.81824    0.56896    0.92074   1.00
C6       0.82899    0.56875    1.07107   1.00
C6       0.75072    0.56807    0.89245   1.00
C6       0.88097    0.61106    1.10054   1.00
H2       0.77696    0.63549    0.85558   1.00
H2       0.81757    0.64269    1.14020   1.00
H2       0.82525    0.63402    0.87330   1.00
H2       0.78183    0.61072    1.12154   1.00
H2       0.80746    0.59551    0.84459   1.00
H2       0.82108    0.59203    1.14863   1.00
H2       0.82664    0.54671    0.89955   1.00
H2       0.83768    0.54545    1.09098   1.00
H2       0.84415    0.58622    0.92725   1.00
H2       0.79800    0.56502    1.06494   1.00
H2       0.80906    0.55427    0.94745   1.00
H2       0.84507    0.56506    1.04385   1.00
H2       0.72659    0.58505    0.88042   1.00
H2       0.88821    0.63910    1.11383   1.00
H2       0.75979    0.54708    0.87025   1.00
H2       0.88835    0.58822    1.12149   1.00
H2       0.73970    0.55162    0.91739   1.00
H2       0.89963    0.60717    1.07502   1.00
C4       0.75230    0.98025    0.75420   1.00
C4       0.75166    1.02191    0.75561   1.00
C3       0.78473    0.95897    0.73920   1.00
C3       0.78484    1.04504    0.74599   1.00
C3       0.71950    0.95854    0.76815   1.00
C3       0.71675    1.04170    0.76707   1.00
C2       0.75445    0.89595    0.75310   1.00
C2       0.74981    1.10622    0.75659   1.00
C3       0.78592    0.91811    0.73882   1.00
C3       0.78397    1.08591    0.74625   1.00
C3       0.72197    0.91696    0.76745   1.00
C3       0.71700    1.08336    0.76675   1.00
H1       0.80854    0.97237    0.72763   1.00
H1       0.81102    1.03306    0.73880   1.00
C5       0.68536    0.97835    0.78207   1.00
C5       0.68291    1.01998    0.77865   1.00
H1       0.81022    0.90451    0.72776   1.00
H1       0.80884    1.10091    0.73886   1.00
H1       0.69934    0.90052    0.77736   1.00
H1       0.69266    1.09848    0.77446   1.00
C6       0.65262    0.95515    0.80056   1.00
C6       0.64498    1.04119    0.78668   1.00
H2       0.66507    0.93345    0.82019   1.00
H2       0.64037    1.06310    0.76411   1.00
H2       0.63556    0.97286    0.82059   1.00
H2       0.61986    1.02228    0.78248   1.00
C6       0.62451    0.93606    0.76993   1.00
C6       0.64304    1.05942    0.82859   1.00
H2       0.64165    0.92292    0.74645   1.00
H2       0.67071    1.07383    0.83525   1.00
C6       0.59505    0.90459    0.78504   1.00
C6       0.60939    1.08911    0.83715   1.00
H2       0.60790    0.95949    0.75609   1.00
H2       0.64080    1.03546    0.84950   1.00
C6       0.61632    0.86735    0.79954   1.00
C6       0.61401    1.12708    0.81294   1.00
C6       0.56896    0.92074    0.81824   1.00
C6       0.56875    1.07107    0.82899   1.00
C6       0.56807    0.89245    0.75072   1.00
C6       0.61106    1.10054    0.88097   1.00
H2       0.63549    0.85558    0.77696   1.00
H2       0.64269    1.14020    0.81757   1.00
H2       0.63402    0.87330    0.82525   1.00
H2       0.61072    1.12154    0.78183   1.00
H2       0.59551    0.84459    0.80746   1.00
H2       0.59203    1.14863    0.82108   1.00
H2       0.54671    0.89955    0.82664   1.00
H2       0.54545    1.09098    0.83768   1.00
H2       0.58622    0.92725    0.84415   1.00
H2       0.56502    1.06494    0.79800   1.00
H2       0.55427    0.94745    0.80906   1.00
H2       0.56506    1.04385    0.84507   1.00
H2       0.58505    0.88042    0.72659   1.00
H2       0.63910    1.11383    0.88821   1.00
H2       0.54708    0.87025    0.75979   1.00
H2       0.58822    1.12149    0.88835   1.00
H2       0.55162    0.91739    0.73970   1.00
H2       0.60717    1.07502    0.89963   1.00
C4       0.51975    0.75420    0.74770   1.00
C4       0.47809    0.75561    0.74834   1.00
C3       0.54103    0.73920    0.71527   1.00
C3       0.45496    0.74599    0.71516   1.00
C3       0.54146    0.76815    0.78050   1.00
C3       0.45830    0.76707    0.78325   1.00
C2       0.60405    0.75310    0.74555   1.00
C2       0.39378    0.75659    0.75019   1.00
C3       0.58189    0.73882    0.71408   1.00
C3       0.41409    0.74625    0.71603   1.00
C3       0.58304    0.76745    0.77803   1.00
C3       0.41664    0.76675    0.78300   1.00
H1       0.52763    0.72763    0.69146   1.00
H1       0.46694    0.73880    0.68898   1.00
C5       0.52165    0.78207    0.81464   1.00
C5       0.48002    0.77865    0.81709   1.00
H1       0.59549    0.72776    0.68978   1.00
H1       0.39909    0.73886    0.69116   1.00
H1       0.59948    0.77736    0.80066   1.00
H1       0.40152    0.77446    0.80734   1.00
C6       0.54485    0.80056    0.84738   1.00
C6       0.45881    0.78668    0.85502   1.00
H2       0.56655    0.82019    0.83493   1.00
H2       0.43690    0.76411    0.85963   1.00
H2       0.52714    0.82059    0.86444   1.00
H2       0.47772    0.78248    0.88014   1.00
C6       0.56394    0.76993    0.87549   1.00
C6       0.44058    0.82859    0.85696   1.00
H2       0.57708    0.74645    0.85835   1.00
H2       0.42617    0.83525    0.82929   1.00
C6       0.59541    0.78504    0.90495   1.00
C6       0.41089    0.83715    0.89061   1.00
H2       0.54051    0.75609    0.89210   1.00
H2       0.46454    0.84950    0.85920   1.00
C6       0.63265    0.79954    0.88368   1.00
C6       0.37292    0.81294    0.88599   1.00
C6       0.57926    0.81824    0.93104   1.00
C6       0.42893    0.82899    0.93125   1.00
C6       0.60755    0.75072    0.93193   1.00
C6       0.39946    0.88097    0.88894   1.00
H2       0.64442    0.77696    0.86451   1.00
H2       0.35980    0.81757    0.85731   1.00
H2       0.62670    0.82525    0.86598   1.00
H2       0.37846    0.78183    0.88928   1.00
H2       0.65541    0.80746    0.90449   1.00
H2       0.35137    0.82108    0.90797   1.00
H2       0.60045    0.82664    0.95329   1.00
H2       0.40902    0.83768    0.95455   1.00
H2       0.57275    0.84415    0.91378   1.00
H2       0.43506    0.79800    0.93498   1.00
H2       0.55255    0.80906    0.94573   1.00
H2       0.45615    0.84507    0.93494   1.00
H2       0.61958    0.72659    0.91495   1.00
H2       0.38617    0.88821    0.86090   1.00
H2       0.62975    0.75979    0.95292   1.00
H2       0.37851    0.88835    0.91178   1.00
H2       0.58261    0.73970    0.94838   1.00
H2       0.42498    0.89963    0.89283   1.00
C4       0.98025    0.75420    0.75230   1.00
C4       1.02191    0.75561    0.75166   1.00
C3       0.95897    0.73920    0.78473   1.00
C3       1.04504    0.74599    0.78484   1.00
C3       0.95854    0.76815    0.71950   1.00
C3       1.04170    0.76707    0.71675   1.00
C2       0.89595    0.75310    0.75445   1.00
C2       1.10622    0.75659    0.74981   1.00
C3       0.91811    0.73882    0.78592   1.00
C3       1.08591    0.74625    0.78397   1.00
C3       0.91696    0.76745    0.72197   1.00
C3       1.08336    0.76675    0.71700   1.00
H1       0.97237    0.72763    0.80854   1.00
H1       1.03306    0.73880    0.81102   1.00
C5       0.97835    0.78207    0.68536   1.00
C5       1.01998    0.77865    0.68291   1.00
H1       0.90451    0.72776    0.81022   1.00
H1       1.10091    0.73886    0.80884   1.00
H1       0.90052    0.77736    0.69934   1.00
H1       1.09848    0.77446    0.69266   1.00
C6       0.95515    0.80056    0.65262   1.00
C6       1.04119    0.78668    0.64498   1.00
H2       0.93345    0.82019    0.66507   1.00
H2       1.06310    0.76411    0.64037   1.00
H2       0.97286    0.82059    0.63556   1.00
H2       1.02228    0.78248    0.61986   1.00
C6       0.93606    0.76993    0.62451   1.00
C6       1.05942    0.82859    0.64304   1.00
H2       0.92292    0.74645    0.64165   1.00
H2       1.07383    0.83525    0.67071   1.00
C6       0.90459    0.78504    0.59505   1.00
C6       1.08911    0.83715    0.60939   1.00
H2       0.95949    0.75609    0.60790   1.00
H2       1.03546    0.84950    0.64080   1.00
C6       0.86735    0.79954    0.61632   1.00
C6       1.12708    0.81294    0.61401   1.00
C6       0.92074    0.81824    0.56896   1.00
C6       1.07107    0.82899    0.56875   1.00
C6       0.89245    0.75072    0.56807   1.00
C6       1.10054    0.88097    0.61106   1.00
H2       0.85558    0.77696    0.63549   1.00
H2       1.14020    0.81757    0.64269   1.00
H2       0.87330    0.82525    0.63402   1.00
H2       1.12154    0.78183    0.61072   1.00
H2       0.84459    0.80746    0.59551   1.00
H2       1.14863    0.82108    0.59203   1.00
H2       0.89955    0.82664    0.54671   1.00
H2       1.09098    0.83768    0.54545   1.00
H2       0.92725    0.84415    0.58622   1.00
H2       1.06494    0.79800    0.56502   1.00
H2       0.94745    0.80906    0.55427   1.00
H2       1.04385    0.84507    0.56506   1.00
H2       0.88042    0.72659    0.58505   1.00
H2       1.11383    0.88821    0.63910   1.00
H2       0.87025    0.75979    0.54708   1.00
H2       1.12149    0.88835    0.58822   1.00
H2       0.91739    0.73970    0.55162   1.00
H2       1.07502    0.89963    0.60717   1.00
C4       0.74770    0.51975    0.75420   1.00
C4       0.74834    0.47809    0.75561   1.00
C3       0.71527    0.54103    0.73920   1.00
C3       0.71516    0.45496    0.74599   1.00
C3       0.78050    0.54146    0.76815   1.00
C3       0.78325    0.45830    0.76707   1.00
C2       0.74555    0.60405    0.75310   1.00
C2       0.75019    0.39378    0.75659   1.00
C3       0.71408    0.58189    0.73882   1.00
C3       0.71603    0.41409    0.74625   1.00
C3       0.77803    0.58304    0.76745   1.00
C3       0.78300    0.41664    0.76675   1.00
H1       0.69146    0.52763    0.72763   1.00
H1       0.68898    0.46694    0.73880   1.00
C5       0.81464    0.52165    0.78207   1.00
C5       0.81709    0.48002    0.77865   1.00
H1       0.68978    0.59549    0.72776   1.00
H1       0.69116    0.39909    0.73886   1.00
H1       0.80066    0.59948    0.77736   1.00
H1       0.80734    0.40152    0.77446   1.00
C6       0.84738    0.54485    0.80056   1.00
C6       0.85502    0.45881    0.78668   1.00
H2       0.83493    0.56655    0.82019   1.00
H2       0.85963    0.43690    0.76411   1.00
H2       0.86444    0.52714    0.82059   1.00
H2       0.88014    0.47772    0.78248   1.00
C6       0.87549    0.56394    0.76993   1.00
C6       0.85696    0.44058    0.82859   1.00
H2       0.85835    0.57708    0.74645   1.00
H2       0.82929    0.42617    0.83525   1.00
C6       0.90495    0.59541    0.78504   1.00
C6       0.89061    0.41089    0.83715   1.00
H2       0.89210    0.54051    0.75609   1.00
H2       0.85920    0.46454    0.84950   1.00
C6       0.88368    0.63265    0.79954   1.00
C6       0.88599    0.37292    0.81294   1.00
C6       0.93104    0.57926    0.81824   1.00
C6       0.93125    0.42893    0.82899   1.00
C6       0.93193    0.60755    0.75072   1.00
C6       0.88894    0.39946    0.88097   1.00
H2       0.86451    0.64442    0.77696   1.00
H2       0.85731    0.35980    0.81757   1.00
H2       0.86598    0.62670    0.82525   1.00
H2       0.88928    0.37846    0.78183   1.00
H2       0.90449    0.65541    0.80746   1.00
H2       0.90797    0.35137    0.82108   1.00
H2       0.95329    0.60045    0.82664   1.00
H2       0.95455    0.40902    0.83768   1.00
H2       0.91378    0.57275    0.84415   1.00
H2       0.93498    0.43506    0.79800   1.00
H2       0.94573    0.55255    0.80906   1.00
H2       0.93494    0.45615    0.84507   1.00
H2       0.91495    0.61958    0.72659   1.00
H2       0.86090    0.38617    0.88821   1.00
H2       0.95292    0.62975    0.75979   1.00
H2       0.91178    0.37851    0.88835   1.00
H2       0.94838    0.58261    0.73970   1.00
H2       0.89283    0.42498    0.89963   1.00
C4       0.75420    0.74770    0.51975   1.00
C4       0.75561    0.74834    0.47809   1.00
C3       0.73920    0.71527    0.54103   1.00
C3       0.74599    0.71516    0.45496   1.00
C3       0.76815    0.78050    0.54146   1.00
C3       0.76707    0.78325    0.45830   1.00
C2       0.75310    0.74555    0.60405   1.00
C2       0.75659    0.75019    0.39378   1.00
C3       0.73882    0.71408    0.58189   1.00
C3       0.74625    0.71603    0.41409   1.00
C3       0.76745    0.77803    0.58304   1.00
C3       0.76675    0.78300    0.41664   1.00
H1       0.72763    0.69146    0.52763   1.00
H1       0.73880    0.68898    0.46694   1.00
C5       0.78207    0.81464    0.52165   1.00
C5       0.77865    0.81709    0.48002   1.00
H1       0.72776    0.68978    0.59549   1.00
H1       0.73886    0.69116    0.39909   1.00
H1       0.77736    0.80066    0.59948   1.00
H1       0.77446    0.80734    0.40152   1.00
C6       0.80056    0.84738    0.54485   1.00
C6       0.78668    0.85502    0.45881   1.00
H2       0.82019    0.83493    0.56655   1.00
H2       0.76411    0.85963    0.43690   1.00
H2       0.82059    0.86444    0.52714   1.00
H2       0.78248    0.88014    0.47772   1.00
C6       0.76993    0.87549    0.56394   1.00
C6       0.82859    0.85696    0.44058   1.00
H2       0.74645    0.85835    0.57708   1.00
H2       0.83525    0.82929    0.42617   1.00
C6       0.78504    0.90495    0.59541   1.00
C6       0.83715    0.89061    0.41089   1.00
H2       0.75609    0.89210    0.54051   1.00
H2       0.84950    0.85920    0.46454   1.00
C6       0.79954    0.88368    0.63265   1.00
C6       0.81294    0.88599    0.37292   1.00
C6       0.81824    0.93104    0.57926   1.00
C6       0.82899    0.93125    0.42893   1.00
C6       0.75072    0.93193    0.60755   1.00
C6       0.88097    0.88894    0.39946   1.00
H2       0.77696    0.86451    0.64442   1.00
H2       0.81757    0.85731    0.35980   1.00
H2       0.82525    0.86598    0.62670   1.00
H2       0.78183    0.88928    0.37846   1.00
H2       0.80746    0.90449    0.65541   1.00
H2       0.82108    0.90797    0.35137   1.00
H2       0.82664    0.95329    0.60045   1.00
H2       0.83768    0.95455    0.40902   1.00
H2       0.84415    0.91378    0.57275   1.00
H2       0.79800    0.93498    0.43506   1.00
H2       0.80906    0.94573    0.55255   1.00
H2       0.84507    0.93494    0.45615   1.00
H2       0.72659    0.91495    0.61958   1.00
H2       0.88821    0.86090    0.38617   1.00
H2       0.75979    0.95292    0.62975   1.00
H2       0.88835    0.91178    0.37851   1.00
H2       0.73970    0.94838    0.58261   1.00
H2       0.89963    0.89283    0.42498   1.00
C4       0.25420    0.25230    0.98025   1.00
C4       0.25561    0.25166    1.02191   1.00
C3       0.23920    0.28473    0.95897   1.00
C3       0.24599    0.28484    1.04504   1.00
C3       0.26815    0.21950    0.95854   1.00
C3       0.26707    0.21675    1.04170   1.00
C2       0.25310    0.25445    0.89595   1.00
C2       0.25659    0.24981    1.10622   1.00
C3       0.23882    0.28592    0.91811   1.00
C3       0.24625    0.28397    1.08591   1.00
C3       0.26745    0.22197    0.91696   1.00
C3       0.26675    0.21700    1.08336   1.00
H1       0.22763    0.30854    0.97237   1.00
H1       0.23880    0.31102    1.03306   1.00
C5       0.28207    0.18536    0.97835   1.00
C5       0.27865    0.18291    1.01998   1.00
H1       0.22776    0.31022    0.90451   1.00
H1       0.23886    0.30884    1.10091   1.00
H1       0.27736    0.19934    0.90052   1.00
H1       0.27446    0.19266    1.09848   1.00
C6       0.30056    0.15262    0.95515   1.00
C6       0.28668    0.14498    1.04119   1.00
H2       0.32019    0.16507    0.93345   1.00
H2       0.26411    0.14037    1.06310   1.00
H2       0.32059    0.13556    0.97286   1.00
H2       0.28248    0.11986    1.02228   1.00
C6       0.26993    0.12451    0.93606   1.00
C6       0.32859    0.14304    1.05942   1.00
H2       0.24645    0.14165    0.92292   1.00
H2       0.33525    0.17071    1.07383   1.00
C6       0.28504    0.09505    0.90459   1.00
C6       0.33715    0.10939    1.08911   1.00
H2       0.25609    0.10790    0.95949   1.00
H2       0.34950    0.14080    1.03546   1.00
C6       0.29954    0.11632    0.86735   1.00
C6       0.31294    0.11401    1.12708   1.00
C6       0.31824    0.06896    0.92074   1.00
C6       0.32899    0.06875    1.07107   1.00
C6       0.25072    0.06807    0.89245   1.00
C6       0.38097    0.11106    1.10054   1.00
H2       0.27696    0.13549    0.85558   1.00
H2       0.31757    0.14269    1.14020   1.00
H2       0.32525    0.13402    0.87330   1.00
H2       0.28183    0.11072    1.12154   1.00
H2       0.30746    0.09551    0.84459   1.00
H2       0.32108    0.09203    1.14863   1.00
H2       0.32664    0.04671    0.89955   1.00
H2       0.33768    0.04545    1.09098   1.00
H2       0.34415    0.08622    0.92725   1.00
H2       0.29800    0.06502    1.06494   1.00
H2       0.30906    0.05427    0.94745   1.00
H2       0.34507    0.06506    1.04385   1.00
H2       0.22659    0.08505    0.88042   1.00
H2       0.38821    0.13910    1.11383   1.00
H2       0.25979    0.04708    0.87025   1.00
H2       0.38835    0.08822    1.12149   1.00
H2       0.23970    0.05162    0.91739   1.00
H2       0.39963    0.10717    1.07502   1.00
C4       0.25230    0.48025    0.75420   1.00
C4       0.25166    0.52191    0.75561   1.00
C3       0.28473    0.45897    0.73920   1.00
C3       0.28484    0.54504    0.74599   1.00
C3       0.21950    0.45854    0.76815   1.00
C3       0.21675    0.54170    0.76707   1.00
C2       0.25445    0.39595    0.75310   1.00
C2       0.24981    0.60622    0.75659   1.00
C3       0.28592    0.41811    0.73882   1.00
C3       0.28397    0.58591    0.74625   1.00
C3       0.22197    0.41696    0.76745   1.00
C3       0.21700    0.58336    0.76675   1.00
H1       0.30854    0.47237    0.72763   1.00
H1       0.31102    0.53306    0.73880   1.00
C5       0.18536    0.47835    0.78207   1.00
C5       0.18291    0.51998    0.77865   1.00
H1       0.31022    0.40451    0.72776   1.00
H1       0.30884    0.60091    0.73886   1.00
H1       0.19934    0.40052    0.77736   1.00
H1       0.19266    0.59848    0.77446   1.00
C6       0.15262    0.45515    0.80056   1.00
C6       0.14498    0.54119    0.78668   1.00
H2       0.16507    0.43345    0.82019   1.00
H2       0.14037    0.56310    0.76411   1.00
H2       0.13556    0.47286    0.82059   1.00
H2       0.11986    0.52228    0.78248   1.00
C6       0.12451    0.43606    0.76993   1.00
C6       0.14304    0.55942    0.82859   1.00
H2       0.14165    0.42292    0.74645   1.00
H2       0.17071    0.57383    0.83525   1.00
C6       0.09505    0.40459    0.78504   1.00
C6       0.10939    0.58911    0.83715   1.00
H2       0.10790    0.45949    0.75609   1.00
H2       0.14080    0.53546    0.84950   1.00
C6       0.11632    0.36735    0.79954   1.00
C6       0.11401    0.62708    0.81294   1.00
C6       0.06896    0.42074    0.81824   1.00
C6       0.06875    0.57107    0.82899   1.00
C6       0.06807    0.39245    0.75072   1.00
C6       0.11106    0.60054    0.88097   1.00
H2       0.13549    0.35558    0.77696   1.00
H2       0.14269    0.64020    0.81757   1.00
H2       0.13402    0.37330    0.82525   1.00
H2       0.11072    0.62154    0.78183   1.00
H2       0.09551    0.34459    0.80746   1.00
H2       0.09203    0.64863    0.82108   1.00
H2       0.04671    0.39955    0.82664   1.00
H2       0.04545    0.59098    0.83768   1.00
H2       0.08622    0.42725    0.84415   1.00
H2       0.06502    0.56494    0.79800   1.00
H2       0.05427    0.44745    0.80906   1.00
H2       0.06506    0.54385    0.84507   1.00
H2       0.08505    0.38042    0.72659   1.00
H2       0.13910    0.61383    0.88821   1.00
H2       0.04708    0.37025    0.75979   1.00
H2       0.08822    0.62149    0.88835   1.00
H2       0.05162    0.41739    0.73970   1.00
H2       0.10717    0.57502    0.89963   1.00
C4       0.01975    0.25420    0.74770   1.00
C4       -0.02191   0.25561    0.74834   1.00
C3       0.04103    0.23920    0.71527   1.00
C3       -0.04504   0.24599    0.71516   1.00
C3       0.04146    0.26815    0.78050   1.00
C3       -0.04170   0.26707    0.78325   1.00
C2       0.10405    0.25310    0.74555   1.00
C2       -0.10622   0.25659    0.75019   1.00
C3       0.08189    0.23882    0.71408   1.00
C3       -0.08591   0.24625    0.71603   1.00
C3       0.08304    0.26745    0.77803   1.00
C3       -0.08336   0.26675    0.78300   1.00
H1       0.02763    0.22763    0.69146   1.00
H1       -0.03306   0.23880    0.68898   1.00
C5       0.02165    0.28207    0.81464   1.00
C5       -0.01998   0.27865    0.81709   1.00
H1       0.09549    0.22776    0.68978   1.00
H1       -0.10091   0.23886    0.69116   1.00
H1       0.09948    0.27736    0.80066   1.00
H1       -0.09848   0.27446    0.80734   1.00
C6       0.04485    0.30056    0.84738   1.00
C6       -0.04119   0.28668    0.85502   1.00
H2       0.06655    0.32019    0.83493   1.00
H2       -0.06310   0.26411    0.85963   1.00
H2       0.02714    0.32059    0.86444   1.00
H2       -0.02228   0.28248    0.88014   1.00
C6       0.06394    0.26993    0.87549   1.00
C6       -0.05942   0.32859    0.85696   1.00
H2       0.07708    0.24645    0.85835   1.00
H2       -0.07383   0.33525    0.82929   1.00
C6       0.09541    0.28504    0.90495   1.00
C6       -0.08911   0.33715    0.89061   1.00
H2       0.04051    0.25609    0.89210   1.00
H2       -0.03546   0.34950    0.85920   1.00
C6       0.13265    0.29954    0.88368   1.00
C6       -0.12708   0.31294    0.88599   1.00
C6       0.07926    0.31824    0.93104   1.00
C6       -0.07107   0.32899    0.93125   1.00
C6       0.10755    0.25072    0.93193   1.00
C6       -0.10054   0.38097    0.88894   1.00
H2       0.14442    0.27696    0.86451   1.00
H2       -0.14020   0.31757    0.85731   1.00
H2       0.12670    0.32525    0.86598   1.00
H2       -0.12154   0.28183    0.88928   1.00
H2       0.15541    0.30746    0.90449   1.00
H2       -0.14863   0.32108    0.90797   1.00
H2       0.10045    0.32664    0.95329   1.00
H2       -0.09098   0.33768    0.95455   1.00
H2       0.07275    0.34415    0.91378   1.00
H2       -0.06494   0.29800    0.93498   1.00
H2       0.05255    0.30906    0.94573   1.00
H2       -0.04385   0.34507    0.93494   1.00
H2       0.11958    0.22659    0.91495   1.00
H2       -0.11383   0.38821    0.86090   1.00
H2       0.12975    0.25979    0.95292   1.00
H2       -0.12149   0.38835    0.91178   1.00
H2       0.08261    0.23970    0.94838   1.00
H2       -0.07502   0.39963    0.89283   1.00
C4       0.48025    0.25420    0.75230   1.00
C4       0.52191    0.25561    0.75166   1.00
C3       0.45897    0.23920    0.78473   1.00
C3       0.54504    0.24599    0.78484   1.00
C3       0.45854    0.26815    0.71950   1.00
C3       0.54170    0.26707    0.71675   1.00
C2       0.39595    0.25310    0.75445   1.00
C2       0.60622    0.25659    0.74981   1.00
C3       0.41811    0.23882    0.78592   1.00
C3       0.58591    0.24625    0.78397   1.00
C3       0.41696    0.26745    0.72197   1.00
C3       0.58336    0.26675    0.71700   1.00
H1       0.47237    0.22763    0.80854   1.00
H1       0.53306    0.23880    0.81102   1.00
C5       0.47835    0.28207    0.68536   1.00
C5       0.51998    0.27865    0.68291   1.00
H1       0.40451    0.22776    0.81022   1.00
H1       0.60091    0.23886    0.80884   1.00
H1       0.40052    0.27736    0.69934   1.00
H1       0.59848    0.27446    0.69266   1.00
C6       0.45515    0.30056    0.65262   1.00
C6       0.54119    0.28668    0.64498   1.00
H2       0.43345    0.32019    0.66507   1.00
H2       0.56310    0.26411    0.64037   1.00
H2       0.47286    0.32059    0.63556   1.00
H2       0.52228    0.28248    0.61986   1.00
C6       0.43606    0.26993    0.62451   1.00
C6       0.55942    0.32859    0.64304   1.00
H2       0.42292    0.24645    0.64165   1.00
H2       0.57383    0.33525    0.67071   1.00
C6       0.40459    0.28504    0.59505   1.00
C6       0.58911    0.33715    0.60939   1.00
H2       0.45949    0.25609    0.60790   1.00
H2       0.53546    0.34950    0.64080   1.00
C6       0.36735    0.29954    0.61632   1.00
C6       0.62708    0.31294    0.61401   1.00
C6       0.42074    0.31824    0.56896   1.00
C6       0.57107    0.32899    0.56875   1.00
C6       0.39245    0.25072    0.56807   1.00
C6       0.60054    0.38097    0.61106   1.00
H2       0.35558    0.27696    0.63549   1.00
H2       0.64020    0.31757    0.64269   1.00
H2       0.37330    0.32525    0.63402   1.00
H2       0.62154    0.28183    0.61072   1.00
H2       0.34459    0.30746    0.59551   1.00
H2       0.64863    0.32108    0.59203   1.00
H2       0.39955    0.32664    0.54671   1.00
H2       0.59098    0.33768    0.54545   1.00
H2       0.42725    0.34415    0.58622   1.00
H2       0.56494    0.29800    0.56502   1.00
H2       0.44745    0.30906    0.55427   1.00
H2       0.54385    0.34507    0.56506   1.00
H2       0.38042    0.22659    0.58505   1.00
H2       0.61383    0.38821    0.63910   1.00
H2       0.37025    0.25979    0.54708   1.00
H2       0.62149    0.38835    0.58822   1.00
H2       0.41739    0.23970    0.55162   1.00
H2       0.57502    0.39963    0.60717   1.00
C4       0.24770    0.01975    0.75420   1.00
C4       0.24834    -0.02191   0.75561   1.00
C3       0.21527    0.04103    0.73920   1.00
C3       0.21516    -0.04504   0.74599   1.00
C3       0.28050    0.04146    0.76815   1.00
C3       0.28325    -0.04170   0.76707   1.00
C2       0.24555    0.10405    0.75310   1.00
C2       0.25019    -0.10622   0.75659   1.00
C3       0.21408    0.08189    0.73882   1.00
C3       0.21603    -0.08591   0.74625   1.00
C3       0.27803    0.08304    0.76745   1.00
C3       0.28300    -0.08336   0.76675   1.00
H1       0.19146    0.02763    0.72763   1.00
H1       0.18898    -0.03306   0.73880   1.00
C5       0.31464    0.02165    0.78207   1.00
C5       0.31709    -0.01998   0.77865   1.00
H1       0.18978    0.09549    0.72776   1.00
H1       0.19116    -0.10091   0.73886   1.00
H1       0.30066    0.09948    0.77736   1.00
H1       0.30734    -0.09848   0.77446   1.00
C6       0.34738    0.04485    0.80056   1.00
C6       0.35502    -0.04119   0.78668   1.00
H2       0.33493    0.06655    0.82019   1.00
H2       0.35963    -0.06310   0.76411   1.00
H2       0.36444    0.02714    0.82059   1.00
H2       0.38014    -0.02228   0.78248   1.00
C6       0.37549    0.06394    0.76993   1.00
C6       0.35696    -0.05942   0.82859   1.00
H2       0.35835    0.07708    0.74645   1.00
H2       0.32929    -0.07383   0.83525   1.00
C6       0.40495    0.09541    0.78504   1.00
C6       0.39061    -0.08911   0.83715   1.00
H2       0.39210    0.04051    0.75609   1.00
H2       0.35920    -0.03546   0.84950   1.00
C6       0.38368    0.13265    0.79954   1.00
C6       0.38599    -0.12708   0.81294   1.00
C6       0.43104    0.07926    0.81824   1.00
C6       0.43125    -0.07107   0.82899   1.00
C6       0.43193    0.10755    0.75072   1.00
C6       0.38894    -0.10054   0.88097   1.00
H2       0.36451    0.14442    0.77696   1.00
H2       0.35731    -0.14020   0.81757   1.00
H2       0.36598    0.12670    0.82525   1.00
H2       0.38928    -0.12154   0.78183   1.00
H2       0.40449    0.15541    0.80746   1.00
H2       0.40797    -0.14863   0.82108   1.00
H2       0.45329    0.10045    0.82664   1.00
H2       0.45455    -0.09098   0.83768   1.00
H2       0.41378    0.07275    0.84415   1.00
H2       0.43498    -0.06494   0.79800   1.00
H2       0.44573    0.05255    0.80906   1.00
H2       0.43494    -0.04385   0.84507   1.00
H2       0.41495    0.11958    0.72659   1.00
H2       0.36090    -0.11383   0.88821   1.00
H2       0.45292    0.12975    0.75979   1.00
H2       0.41178    -0.12149   0.88835   1.00
H2       0.44838    0.08261    0.73970   1.00
H2       0.39283    -0.07502   0.89963   1.00
C4       0.25420    0.24770    0.51975   1.00
C4       0.25561    0.24834    0.47809   1.00
C3       0.23920    0.21527    0.54103   1.00
C3       0.24599    0.21516    0.45496   1.00
C3       0.26815    0.28050    0.54146   1.00
C3       0.26707    0.28325    0.45830   1.00
C2       0.25310    0.24555    0.60405   1.00
C2       0.25659    0.25019    0.39378   1.00
C3       0.23882    0.21408    0.58189   1.00
C3       0.24625    0.21603    0.41409   1.00
C3       0.26745    0.27803    0.58304   1.00
C3       0.26675    0.28300    0.41664   1.00
H1       0.22763    0.19146    0.52763   1.00
H1       0.23880    0.18898    0.46694   1.00
C5       0.28207    0.31464    0.52165   1.00
C5       0.27865    0.31709    0.48002   1.00
H1       0.22776    0.18978    0.59549   1.00
H1       0.23886    0.19116    0.39909   1.00
H1       0.27736    0.30066    0.59948   1.00
H1       0.27446    0.30734    0.40152   1.00
C6       0.30056    0.34738    0.54485   1.00
C6       0.28668    0.35502    0.45881   1.00
H2       0.32019    0.33493    0.56655   1.00
H2       0.26411    0.35963    0.43690   1.00
H2       0.32059    0.36444    0.52714   1.00
H2       0.28248    0.38014    0.47772   1.00
C6       0.26993    0.37549    0.56394   1.00
C6       0.32859    0.35696    0.44058   1.00
H2       0.24645    0.35835    0.57708   1.00
H2       0.33525    0.32929    0.42617   1.00
C6       0.28504    0.40495    0.59541   1.00
C6       0.33715    0.39061    0.41089   1.00
H2       0.25609    0.39210    0.54051   1.00
H2       0.34950    0.35920    0.46454   1.00
C6       0.29954    0.38368    0.63265   1.00
C6       0.31294    0.38599    0.37292   1.00
C6       0.31824    0.43104    0.57926   1.00
C6       0.32899    0.43125    0.42893   1.00
C6       0.25072    0.43193    0.60755   1.00
C6       0.38097    0.38894    0.39946   1.00
H2       0.27696    0.36451    0.64442   1.00
H2       0.31757    0.35731    0.35980   1.00
H2       0.32525    0.36598    0.62670   1.00
H2       0.28183    0.38928    0.37846   1.00
H2       0.30746    0.40449    0.65541   1.00
H2       0.32108    0.40797    0.35137   1.00
H2       0.32664    0.45329    0.60045   1.00
H2       0.33768    0.45455    0.40902   1.00
H2       0.34415    0.41378    0.57275   1.00
H2       0.29800    0.43498    0.43506   1.00
H2       0.30906    0.44573    0.55255   1.00
H2       0.34507    0.43494    0.45615   1.00
H2       0.22659    0.41495    0.61958   1.00
H2       0.38821    0.36090    0.38617   1.00
H2       0.25979    0.45292    0.62975   1.00
H2       0.38835    0.41178    0.37851   1.00
H2       0.23970    0.44838    0.58261   1.00
H2       0.39963    0.39283    0.42498   1.00
C4       0.25420    0.75230    0.48025   1.00
C4       0.25561    0.75166    0.52191   1.00
C3       0.23920    0.78473    0.45897   1.00
C3       0.24599    0.78484    0.54504   1.00
C3       0.26815    0.71950    0.45854   1.00
C3       0.26707    0.71675    0.54170   1.00
C2       0.25310    0.75445    0.39595   1.00
C2       0.25659    0.74981    0.60622   1.00
C3       0.23882    0.78592    0.41811   1.00
C3       0.24625    0.78397    0.58591   1.00
C3       0.26745    0.72197    0.41696   1.00
C3       0.26675    0.71700    0.58336   1.00
H1       0.22763    0.80854    0.47237   1.00
H1       0.23880    0.81102    0.53306   1.00
C5       0.28207    0.68536    0.47835   1.00
C5       0.27865    0.68291    0.51998   1.00
H1       0.22776    0.81022    0.40451   1.00
H1       0.23886    0.80884    0.60091   1.00
H1       0.27736    0.69934    0.40052   1.00
H1       0.27446    0.69266    0.59848   1.00
C6       0.30056    0.65262    0.45515   1.00
C6       0.28668    0.64498    0.54119   1.00
H2       0.32019    0.66507    0.43345   1.00
H2       0.26411    0.64037    0.56310   1.00
H2       0.32059    0.63556    0.47286   1.00
H2       0.28248    0.61986    0.52228   1.00
C6       0.26993    0.62451    0.43606   1.00
C6       0.32859    0.64304    0.55942   1.00
H2       0.24645    0.64165    0.42292   1.00
H2       0.33525    0.67071    0.57383   1.00
C6       0.28504    0.59505    0.40459   1.00
C6       0.33715    0.60939    0.58911   1.00
H2       0.25609    0.60790    0.45949   1.00
H2       0.34950    0.64080    0.53546   1.00
C6       0.29954    0.61632    0.36735   1.00
C6       0.31294    0.61401    0.62708   1.00
C6       0.31824    0.56896    0.42074   1.00
C6       0.32899    0.56875    0.57107   1.00
C6       0.25072    0.56807    0.39245   1.00
C6       0.38097    0.61106    0.60054   1.00
H2       0.27696    0.63549    0.35558   1.00
H2       0.31757    0.64269    0.64020   1.00
H2       0.32525    0.63402    0.37330   1.00
H2       0.28183    0.61072    0.62154   1.00
H2       0.30746    0.59551    0.34459   1.00
H2       0.32108    0.59203    0.64863   1.00
H2       0.32664    0.54671    0.39955   1.00
H2       0.33768    0.54545    0.59098   1.00
H2       0.34415    0.58622    0.42725   1.00
H2       0.29800    0.56502    0.56494   1.00
H2       0.30906    0.55427    0.44745   1.00
H2       0.34507    0.56506    0.54385   1.00
H2       0.22659    0.58505    0.38042   1.00
H2       0.38821    0.63910    0.61383   1.00
H2       0.25979    0.54708    0.37025   1.00
H2       0.38835    0.58822    0.62149   1.00
H2       0.23970    0.55162    0.41739   1.00
H2       0.39963    0.60717    0.57502   1.00
C4       0.25230    0.98025    0.25420   1.00
C4       0.25166    1.02191    0.25561   1.00
C3       0.28473    0.95897    0.23920   1.00
C3       0.28484    1.04504    0.24599   1.00
C3       0.21950    0.95854    0.26815   1.00
C3       0.21675    1.04170    0.26707   1.00
C2       0.25445    0.89595    0.25310   1.00
C2       0.24981    1.10622    0.25659   1.00
C3       0.28592    0.91811    0.23882   1.00
C3       0.28397    1.08591    0.24625   1.00
C3       0.22197    0.91696    0.26745   1.00
C3       0.21700    1.08336    0.26675   1.00
H1       0.30854    0.97237    0.22763   1.00
H1       0.31102    1.03306    0.23880   1.00
C5       0.18536    0.97835    0.28207   1.00
C5       0.18291    1.01998    0.27865   1.00
H1       0.31022    0.90451    0.22776   1.00
H1       0.30884    1.10091    0.23886   1.00
H1       0.19934    0.90052    0.27736   1.00
H1       0.19266    1.09848    0.27446   1.00
C6       0.15262    0.95515    0.30056   1.00
C6       0.14498    1.04119    0.28668   1.00
H2       0.16507    0.93345    0.32019   1.00
H2       0.14037    1.06310    0.26411   1.00
H2       0.13556    0.97286    0.32059   1.00
H2       0.11986    1.02228    0.28248   1.00
C6       0.12451    0.93606    0.26993   1.00
C6       0.14304    1.05942    0.32859   1.00
H2       0.14165    0.92292    0.24645   1.00
H2       0.17071    1.07383    0.33525   1.00
C6       0.09505    0.90459    0.28504   1.00
C6       0.10939    1.08911    0.33715   1.00
H2       0.10790    0.95949    0.25609   1.00
H2       0.14080    1.03546    0.34950   1.00
C6       0.11632    0.86735    0.29954   1.00
C6       0.11401    1.12708    0.31294   1.00
C6       0.06896    0.92074    0.31824   1.00
C6       0.06875    1.07107    0.32899   1.00
C6       0.06807    0.89245    0.25072   1.00
C6       0.11106    1.10054    0.38097   1.00
H2       0.13549    0.85558    0.27696   1.00
H2       0.14269    1.14020    0.31757   1.00
H2       0.13402    0.87330    0.32525   1.00
H2       0.11072    1.12154    0.28183   1.00
H2       0.09551    0.84459    0.30746   1.00
H2       0.09203    1.14863    0.32108   1.00
H2       0.04671    0.89955    0.32664   1.00
H2       0.04545    1.09098    0.33768   1.00
H2       0.08622    0.92725    0.34415   1.00
H2       0.06502    1.06494    0.29800   1.00
H2       0.05427    0.94745    0.30906   1.00
H2       0.06506    1.04385    0.34507   1.00
H2       0.08505    0.88042    0.22659   1.00
H2       0.13910    1.11383    0.38821   1.00
H2       0.04708    0.87025    0.25979   1.00
H2       0.08822    1.12149    0.38835   1.00
H2       0.05162    0.91739    0.23970   1.00
H2       0.10717    1.07502    0.39963   1.00
C4       0.01975    0.75420    0.24770   1.00
C4       -0.02191   0.75561    0.24834   1.00
C3       0.04103    0.73920    0.21527   1.00
C3       -0.04504   0.74599    0.21516   1.00
C3       0.04146    0.76815    0.28050   1.00
C3       -0.04170   0.76707    0.28325   1.00
C2       0.10405    0.75310    0.24555   1.00
C2       -0.10622   0.75659    0.25019   1.00
C3       0.08189    0.73882    0.21408   1.00
C3       -0.08591   0.74625    0.21603   1.00
C3       0.08304    0.76745    0.27803   1.00
C3       -0.08336   0.76675    0.28300   1.00
H1       0.02763    0.72763    0.19146   1.00
H1       -0.03306   0.73880    0.18898   1.00
C5       0.02165    0.78207    0.31464   1.00
C5       -0.01998   0.77865    0.31709   1.00
H1       0.09549    0.72776    0.18978   1.00
H1       -0.10091   0.73886    0.19116   1.00
H1       0.09948    0.77736    0.30066   1.00
H1       -0.09848   0.77446    0.30734   1.00
C6       0.04485    0.80056    0.34738   1.00
C6       -0.04119   0.78668    0.35502   1.00
H2       0.06655    0.82019    0.33493   1.00
H2       -0.06310   0.76411    0.35963   1.00
H2       0.02714    0.82059    0.36444   1.00
H2       -0.02228   0.78248    0.38014   1.00
C6       0.06394    0.76993    0.37549   1.00
C6       -0.05942   0.82859    0.35696   1.00
H2       0.07708    0.74645    0.35835   1.00
H2       -0.07383   0.83525    0.32929   1.00
C6       0.09541    0.78504    0.40495   1.00
C6       -0.08911   0.83715    0.39061   1.00
H2       0.04051    0.75609    0.39210   1.00
H2       -0.03546   0.84950    0.35920   1.00
C6       0.13265    0.79954    0.38368   1.00
C6       -0.12708   0.81294    0.38599   1.00
C6       0.07926    0.81824    0.43104   1.00
C6       -0.07107   0.82899    0.43125   1.00
C6       0.10755    0.75072    0.43193   1.00
C6       -0.10054   0.88097    0.38894   1.00
H2       0.14442    0.77696    0.36451   1.00
H2       -0.14020   0.81757    0.35731   1.00
H2       0.12670    0.82525    0.36598   1.00
H2       -0.12154   0.78183    0.38928   1.00
H2       0.15541    0.80746    0.40449   1.00
H2       -0.14863   0.82108    0.40797   1.00
H2       0.10045    0.82664    0.45329   1.00
H2       -0.09098   0.83768    0.45455   1.00
H2       0.07275    0.84415    0.41378   1.00
H2       -0.06494   0.79800    0.43498   1.00
H2       0.05255    0.80906    0.44573   1.00
H2       -0.04385   0.84507    0.43494   1.00
H2       0.11958    0.72659    0.41495   1.00
H2       -0.11383   0.88821    0.36090   1.00
H2       0.12975    0.75979    0.45292   1.00
H2       -0.12149   0.88835    0.41178   1.00
H2       0.08261    0.73970    0.44838   1.00
H2       -0.07502   0.89963    0.39283   1.00
C4       0.48025    0.75420    0.25230   1.00
C4       0.52191    0.75561    0.25166   1.00
C3       0.45897    0.73920    0.28473   1.00
C3       0.54504    0.74599    0.28484   1.00
C3       0.45854    0.76815    0.21950   1.00
C3       0.54170    0.76707    0.21675   1.00
C2       0.39595    0.75310    0.25445   1.00
C2       0.60622    0.75659    0.24981   1.00
C3       0.41811    0.73882    0.28592   1.00
C3       0.58591    0.74625    0.28397   1.00
C3       0.41696    0.76745    0.22197   1.00
C3       0.58336    0.76675    0.21700   1.00
H1       0.47237    0.72763    0.30854   1.00
H1       0.53306    0.73880    0.31102   1.00
C5       0.47835    0.78207    0.18536   1.00
C5       0.51998    0.77865    0.18291   1.00
H1       0.40451    0.72776    0.31022   1.00
H1       0.60091    0.73886    0.30884   1.00
H1       0.40052    0.77736    0.19934   1.00
H1       0.59848    0.77446    0.19266   1.00
C6       0.45515    0.80056    0.15262   1.00
C6       0.54119    0.78668    0.14498   1.00
H2       0.43345    0.82019    0.16507   1.00
H2       0.56310    0.76411    0.14037   1.00
H2       0.47286    0.82059    0.13556   1.00
H2       0.52228    0.78248    0.11986   1.00
C6       0.43606    0.76993    0.12451   1.00
C6       0.55942    0.82859    0.14304   1.00
H2       0.42292    0.74645    0.14165   1.00
H2       0.57383    0.83525    0.17071   1.00
C6       0.40459    0.78504    0.09505   1.00
C6       0.58911    0.83715    0.10939   1.00
H2       0.45949    0.75609    0.10790   1.00
H2       0.53546    0.84950    0.14080   1.00
C6       0.36735    0.79954    0.11632   1.00
C6       0.62708    0.81294    0.11401   1.00
C6       0.42074    0.81824    0.06896   1.00
C6       0.57107    0.82899    0.06875   1.00
C6       0.39245    0.75072    0.06807   1.00
C6       0.60054    0.88097    0.11106   1.00
H2       0.35558    0.77696    0.13549   1.00
H2       0.64020    0.81757    0.14269   1.00
H2       0.37330    0.82525    0.13402   1.00
H2       0.62154    0.78183    0.11072   1.00
H2       0.34459    0.80746    0.09551   1.00
H2       0.64863    0.82108    0.09203   1.00
H2       0.39955    0.82664    0.04671   1.00
H2       0.59098    0.83768    0.04545   1.00
H2       0.42725    0.84415    0.08622   1.00
H2       0.56494    0.79800    0.06502   1.00
H2       0.44745    0.80906    0.05427   1.00
H2       0.54385    0.84507    0.06506   1.00
H2       0.38042    0.72659    0.08505   1.00
H2       0.61383    0.88821    0.13910   1.00
H2       0.37025    0.75979    0.04708   1.00
H2       0.62149    0.88835    0.08822   1.00
H2       0.41739    0.73970    0.05162   1.00
H2       0.57502    0.89963    0.10717   1.00
C4       0.24770    0.51975    0.25420   1.00
C4       0.24834    0.47809    0.25561   1.00
C3       0.21527    0.54103    0.23920   1.00
C3       0.21516    0.45496    0.24599   1.00
C3       0.28050    0.54146    0.26815   1.00
C3       0.28325    0.45830    0.26707   1.00
C2       0.24555    0.60405    0.25310   1.00
C2       0.25019    0.39378    0.25659   1.00
C3       0.21408    0.58189    0.23882   1.00
C3       0.21603    0.41409    0.24625   1.00
C3       0.27803    0.58304    0.26745   1.00
C3       0.28300    0.41664    0.26675   1.00
H1       0.19146    0.52763    0.22763   1.00
H1       0.18898    0.46694    0.23880   1.00
C5       0.31464    0.52165    0.28207   1.00
C5       0.31709    0.48002    0.27865   1.00
H1       0.18978    0.59549    0.22776   1.00
H1       0.19116    0.39909    0.23886   1.00
H1       0.30066    0.59948    0.27736   1.00
H1       0.30734    0.40152    0.27446   1.00
C6       0.34738    0.54485    0.30056   1.00
C6       0.35502    0.45881    0.28668   1.00
H2       0.33493    0.56655    0.32019   1.00
H2       0.35963    0.43690    0.26411   1.00
H2       0.36444    0.52714    0.32059   1.00
H2       0.38014    0.47772    0.28248   1.00
C6       0.37549    0.56394    0.26993   1.00
C6       0.35696    0.44058    0.32859   1.00
H2       0.35835    0.57708    0.24645   1.00
H2       0.32929    0.42617    0.33525   1.00
C6       0.40495    0.59541    0.28504   1.00
C6       0.39061    0.41089    0.33715   1.00
H2       0.39210    0.54051    0.25609   1.00
H2       0.35920    0.46454    0.34950   1.00
C6       0.38368    0.63265    0.29954   1.00
C6       0.38599    0.37292    0.31294   1.00
C6       0.43104    0.57926    0.31824   1.00
C6       0.43125    0.42893    0.32899   1.00
C6       0.43193    0.60755    0.25072   1.00
C6       0.38894    0.39946    0.38097   1.00
H2       0.36451    0.64442    0.27696   1.00
H2       0.35731    0.35980    0.31757   1.00
H2       0.36598    0.62670    0.32525   1.00
H2       0.38928    0.37846    0.28183   1.00
H2       0.40449    0.65541    0.30746   1.00
H2       0.40797    0.35137    0.32108   1.00
H2       0.45329    0.60045    0.32664   1.00
H2       0.45455    0.40902    0.33768   1.00
H2       0.41378    0.57275    0.34415   1.00
H2       0.43498    0.43506    0.29800   1.00
H2       0.44573    0.55255    0.30906   1.00
H2       0.43494    0.45615    0.34507   1.00
H2       0.41495    0.61958    0.22659   1.00
H2       0.36090    0.38617    0.38821   1.00
H2       0.45292    0.62975    0.25979   1.00
H2       0.41178    0.37851    0.38835   1.00
H2       0.44838    0.58261    0.23970   1.00
H2       0.39283    0.42498    0.39963   1.00
C4       0.25420    0.74770    0.01975   1.00
C4       0.25561    0.74834    -0.02191   1.00
C3       0.23920    0.71527    0.04103   1.00
C3       0.24599    0.71516    -0.04504   1.00
C3       0.26815    0.78050    0.04146   1.00
C3       0.26707    0.78325    -0.04170   1.00
C2       0.25310    0.74555    0.10405   1.00
C2       0.25659    0.75019    -0.10622   1.00
C3       0.23882    0.71408    0.08189   1.00
C3       0.24625    0.71603    -0.08591   1.00
C3       0.26745    0.77803    0.08304   1.00
C3       0.26675    0.78300    -0.08336   1.00
H1       0.22763    0.69146    0.02763   1.00
H1       0.23880    0.68898    -0.03306   1.00
C5       0.28207    0.81464    0.02165   1.00
C5       0.27865    0.81709    -0.01998   1.00
H1       0.22776    0.68978    0.09549   1.00
H1       0.23886    0.69116    -0.10091   1.00
H1       0.27736    0.80066    0.09948   1.00
H1       0.27446    0.80734    -0.09848   1.00
C6       0.30056    0.84738    0.04485   1.00
C6       0.28668    0.85502    -0.04119   1.00
H2       0.32019    0.83493    0.06655   1.00
H2       0.26411    0.85963    -0.06310   1.00
H2       0.32059    0.86444    0.02714   1.00
H2       0.28248    0.88014    -0.02228   1.00
C6       0.26993    0.87549    0.06394   1.00
C6       0.32859    0.85696    -0.05942   1.00
H2       0.24645    0.85835    0.07708   1.00
H2       0.33525    0.82929    -0.07383   1.00
C6       0.28504    0.90495    0.09541   1.00
C6       0.33715    0.89061    -0.08911   1.00
H2       0.25609    0.89210    0.04051   1.00
H2       0.34950    0.85920    -0.03546   1.00
C6       0.29954    0.88368    0.13265   1.00
C6       0.31294    0.88599    -0.12708   1.00
C6       0.31824    0.93104    0.07926   1.00
C6       0.32899    0.93125    -0.07107   1.00
C6       0.25072    0.93193    0.10755   1.00
C6       0.38097    0.88894    -0.10054   1.00
H2       0.27696    0.86451    0.14442   1.00
H2       0.31757    0.85731    -0.14020   1.00
H2       0.32525    0.86598    0.12670   1.00
H2       0.28183    0.88928    -0.12154   1.00
H2       0.30746    0.90449    0.15541   1.00
H2       0.32108    0.90797    -0.14863   1.00
H2       0.32664    0.95329    0.10045   1.00
H2       0.33768    0.95455    -0.09098   1.00
H2       0.34415    0.91378    0.07275   1.00
H2       0.29800    0.93498    -0.06494   1.00
H2       0.30906    0.94573    0.05255   1.00
H2       0.34507    0.93494    -0.04385   1.00
H2       0.22659    0.91495    0.11958   1.00
H2       0.38821    0.86090    -0.11383   1.00
H2       0.25979    0.95292    0.12975   1.00
H2       0.38835    0.91178    -0.12149   1.00
H2       0.23970    0.94838    0.08261   1.00
H2       0.39963    0.89283    -0.07502   1.00
C4       0.75420    0.25230    0.48025   1.00
C4       0.75561    0.25166    0.52191   1.00
C3       0.73920    0.28473    0.45897   1.00
C3       0.74599    0.28484    0.54504   1.00
C3       0.76815    0.21950    0.45854   1.00
C3       0.76707    0.21675    0.54170   1.00
C2       0.75310    0.25445    0.39595   1.00
C2       0.75659    0.24981    0.60622   1.00
C3       0.73882    0.28592    0.41811   1.00
C3       0.74625    0.28397    0.58591   1.00
C3       0.76745    0.22197    0.41696   1.00
C3       0.76675    0.21700    0.58336   1.00
H1       0.72763    0.30854    0.47237   1.00
H1       0.73880    0.31102    0.53306   1.00
C5       0.78207    0.18536    0.47835   1.00
C5       0.77865    0.18291    0.51998   1.00
H1       0.72776    0.31022    0.40451   1.00
H1       0.73886    0.30884    0.60091   1.00
H1       0.77736    0.19934    0.40052   1.00
H1       0.77446    0.19266    0.59848   1.00
C6       0.80056    0.15262    0.45515   1.00
C6       0.78668    0.14498    0.54119   1.00
H2       0.82019    0.16507    0.43345   1.00
H2       0.76411    0.14037    0.56310   1.00
H2       0.82059    0.13556    0.47286   1.00
H2       0.78248    0.11986    0.52228   1.00
C6       0.76993    0.12451    0.43606   1.00
C6       0.82859    0.14304    0.55942   1.00
H2       0.74645    0.14165    0.42292   1.00
H2       0.83525    0.17071    0.57383   1.00
C6       0.78504    0.09505    0.40459   1.00
C6       0.83715    0.10939    0.58911   1.00
H2       0.75609    0.10790    0.45949   1.00
H2       0.84950    0.14080    0.53546   1.00
C6       0.79954    0.11632    0.36735   1.00
C6       0.81294    0.11401    0.62708   1.00
C6       0.81824    0.06896    0.42074   1.00
C6       0.82899    0.06875    0.57107   1.00
C6       0.75072    0.06807    0.39245   1.00
C6       0.88097    0.11106    0.60054   1.00
H2       0.77696    0.13549    0.35558   1.00
H2       0.81757    0.14269    0.64020   1.00
H2       0.82525    0.13402    0.37330   1.00
H2       0.78183    0.11072    0.62154   1.00
H2       0.80746    0.09551    0.34459   1.00
H2       0.82108    0.09203    0.64863   1.00
H2       0.82664    0.04671    0.39955   1.00
H2       0.83768    0.04545    0.59098   1.00
H2       0.84415    0.08622    0.42725   1.00
H2       0.79800    0.06502    0.56494   1.00
H2       0.80906    0.05427    0.44745   1.00
H2       0.84507    0.06506    0.54385   1.00
H2       0.72659    0.08505    0.38042   1.00
H2       0.88821    0.13910    0.61383   1.00
H2       0.75979    0.04708    0.37025   1.00
H2       0.88835    0.08822    0.62149   1.00
H2       0.73970    0.05162    0.41739   1.00
H2       0.89963    0.10717    0.57502   1.00
C4       0.75230    0.48025    0.25420   1.00
C4       0.75166    0.52191    0.25561   1.00
C3       0.78473    0.45897    0.23920   1.00
C3       0.78484    0.54504    0.24599   1.00
C3       0.71950    0.45854    0.26815   1.00
C3       0.71675    0.54170    0.26707   1.00
C2       0.75445    0.39595    0.25310   1.00
C2       0.74981    0.60622    0.25659   1.00
C3       0.78592    0.41811    0.23882   1.00
C3       0.78397    0.58591    0.24625   1.00
C3       0.72197    0.41696    0.26745   1.00
C3       0.71700    0.58336    0.26675   1.00
H1       0.80854    0.47237    0.22763   1.00
H1       0.81102    0.53306    0.23880   1.00
C5       0.68536    0.47835    0.28207   1.00
C5       0.68291    0.51998    0.27865   1.00
H1       0.81022    0.40451    0.22776   1.00
H1       0.80884    0.60091    0.23886   1.00
H1       0.69934    0.40052    0.27736   1.00
H1       0.69266    0.59848    0.27446   1.00
C6       0.65262    0.45515    0.30056   1.00
C6       0.64498    0.54119    0.28668   1.00
H2       0.66507    0.43345    0.32019   1.00
H2       0.64037    0.56310    0.26411   1.00
H2       0.63556    0.47286    0.32059   1.00
H2       0.61986    0.52228    0.28248   1.00
C6       0.62451    0.43606    0.26993   1.00
C6       0.64304    0.55942    0.32859   1.00
H2       0.64165    0.42292    0.24645   1.00
H2       0.67071    0.57383    0.33525   1.00
C6       0.59505    0.40459    0.28504   1.00
C6       0.60939    0.58911    0.33715   1.00
H2       0.60790    0.45949    0.25609   1.00
H2       0.64080    0.53546    0.34950   1.00
C6       0.61632    0.36735    0.29954   1.00
C6       0.61401    0.62708    0.31294   1.00
C6       0.56896    0.42074    0.31824   1.00
C6       0.56875    0.57107    0.32899   1.00
C6       0.56807    0.39245    0.25072   1.00
C6       0.61106    0.60054    0.38097   1.00
H2       0.63549    0.35558    0.27696   1.00
H2       0.64269    0.64020    0.31757   1.00
H2       0.63402    0.37330    0.32525   1.00
H2       0.61072    0.62154    0.28183   1.00
H2       0.59551    0.34459    0.30746   1.00
H2       0.59203    0.64863    0.32108   1.00
H2       0.54671    0.39955    0.32664   1.00
H2       0.54545    0.59098    0.33768   1.00
H2       0.58622    0.42725    0.34415   1.00
H2       0.56502    0.56494    0.29800   1.00
H2       0.55427    0.44745    0.30906   1.00
H2       0.56506    0.54385    0.34507   1.00
H2       0.58505    0.38042    0.22659   1.00
H2       0.63910    0.61383    0.38821   1.00
H2       0.54708    0.37025    0.25979   1.00
H2       0.58822    0.62149    0.38835   1.00
H2       0.55162    0.41739    0.23970   1.00
H2       0.60717    0.57502    0.39963   1.00
C4       0.51975    0.25420    0.24770   1.00
C4       0.47809    0.25561    0.24834   1.00
C3       0.54103    0.23920    0.21527   1.00
C3       0.45496    0.24599    0.21516   1.00
C3       0.54146    0.26815    0.28050   1.00
C3       0.45830    0.26707    0.28325   1.00
C2       0.60405    0.25310    0.24555   1.00
C2       0.39378    0.25659    0.25019   1.00
C3       0.58189    0.23882    0.21408   1.00
C3       0.41409    0.24625    0.21603   1.00
C3       0.58304    0.26745    0.27803   1.00
C3       0.41664    0.26675    0.28300   1.00
H1       0.52763    0.22763    0.19146   1.00
H1       0.46694    0.23880    0.18898   1.00
C5       0.52165    0.28207    0.31464   1.00
C5       0.48002    0.27865    0.31709   1.00
H1       0.59549    0.22776    0.18978   1.00
H1       0.39909    0.23886    0.19116   1.00
H1       0.59948    0.27736    0.30066   1.00
H1       0.40152    0.27446    0.30734   1.00
C6       0.54485    0.30056    0.34738   1.00
C6       0.45881    0.28668    0.35502   1.00
H2       0.56655    0.32019    0.33493   1.00
H2       0.43690    0.26411    0.35963   1.00
H2       0.52714    0.32059    0.36444   1.00
H2       0.47772    0.28248    0.38014   1.00
C6       0.56394    0.26993    0.37549   1.00
C6       0.44058    0.32859    0.35696   1.00
H2       0.57708    0.24645    0.35835   1.00
H2       0.42617    0.33525    0.32929   1.00
C6       0.59541    0.28504    0.40495   1.00
C6       0.41089    0.33715    0.39061   1.00
H2       0.54051    0.25609    0.39210   1.00
H2       0.46454    0.34950    0.35920   1.00
C6       0.63265    0.29954    0.38368   1.00
C6       0.37292    0.31294    0.38599   1.00
C6       0.57926    0.31824    0.43104   1.00
C6       0.42893    0.32899    0.43125   1.00
C6       0.60755    0.25072    0.43193   1.00
C6       0.39946    0.38097    0.38894   1.00
H2       0.64442    0.27696    0.36451   1.00
H2       0.35980    0.31757    0.35731   1.00
H2       0.62670    0.32525    0.36598   1.00
H2       0.37846    0.28183    0.38928   1.00
H2       0.65541    0.30746    0.40449   1.00
H2       0.35137    0.32108    0.40797   1.00
H2       0.60045    0.32664    0.45329   1.00
H2       0.40902    0.33768    0.45455   1.00
H2       0.57275    0.34415    0.41378   1.00
H2       0.43506    0.29800    0.43498   1.00
H2       0.55255    0.30906    0.44573   1.00
H2       0.45615    0.34507    0.43494   1.00
H2       0.61958    0.22659    0.41495   1.00
H2       0.38617    0.38821    0.36090   1.00
H2       0.62975    0.25979    0.45292   1.00
H2       0.37851    0.38835    0.41178   1.00
H2       0.58261    0.23970    0.44838   1.00
H2       0.42498    0.39963    0.39283   1.00
C4       0.98025    0.25420    0.25230   1.00
C4       1.02191    0.25561    0.25166   1.00
C3       0.95897    0.23920    0.28473   1.00
C3       1.04504    0.24599    0.28484   1.00
C3       0.95854    0.26815    0.21950   1.00
C3       1.04170    0.26707    0.21675   1.00
C2       0.89595    0.25310    0.25445   1.00
C2       1.10622    0.25659    0.24981   1.00
C3       0.91811    0.23882    0.28592   1.00
C3       1.08591    0.24625    0.28397   1.00
C3       0.91696    0.26745    0.22197   1.00
C3       1.08336    0.26675    0.21700   1.00
H1       0.97237    0.22763    0.30854   1.00
H1       1.03306    0.23880    0.31102   1.00
C5       0.97835    0.28207    0.18536   1.00
C5       1.01998    0.27865    0.18291   1.00
H1       0.90451    0.22776    0.31022   1.00
H1       1.10091    0.23886    0.30884   1.00
H1       0.90052    0.27736    0.19934   1.00
H1       1.09848    0.27446    0.19266   1.00
C6       0.95515    0.30056    0.15262   1.00
C6       1.04119    0.28668    0.14498   1.00
H2       0.93345    0.32019    0.16507   1.00
H2       1.06310    0.26411    0.14037   1.00
H2       0.97286    0.32059    0.13556   1.00
H2       1.02228    0.28248    0.11986   1.00
C6       0.93606    0.26993    0.12451   1.00
C6       1.05942    0.32859    0.14304   1.00
H2       0.92292    0.24645    0.14165   1.00
H2       1.07383    0.33525    0.17071   1.00
C6       0.90459    0.28504    0.09505   1.00
C6       1.08911    0.33715    0.10939   1.00
H2       0.95949    0.25609    0.10790   1.00
H2       1.03546    0.34950    0.14080   1.00
C6       0.86735    0.29954    0.11632   1.00
C6       1.12708    0.31294    0.11401   1.00
C6       0.92074    0.31824    0.06896   1.00
C6       1.07107    0.32899    0.06875   1.00
C6       0.89245    0.25072    0.06807   1.00
C6       1.10054    0.38097    0.11106   1.00
H2       0.85558    0.27696    0.13549   1.00
H2       1.14020    0.31757    0.14269   1.00
H2       0.87330    0.32525    0.13402   1.00
H2       1.12154    0.28183    0.11072   1.00
H2       0.84459    0.30746    0.09551   1.00
H2       1.14863    0.32108    0.09203   1.00
H2       0.89955    0.32664    0.04671   1.00
H2       1.09098    0.33768    0.04545   1.00
H2       0.92725    0.34415    0.08622   1.00
H2       1.06494    0.29800    0.06502   1.00
H2       0.94745    0.30906    0.05427   1.00
H2       1.04385    0.34507    0.06506   1.00
H2       0.88042    0.22659    0.08505   1.00
H2       1.11383    0.38821    0.13910   1.00
H2       0.87025    0.25979    0.04708   1.00
H2       1.12149    0.38835    0.08822   1.00
H2       0.91739    0.23970    0.05162   1.00
H2       1.07502    0.39963    0.10717   1.00
C4       0.74770    0.01975    0.25420   1.00
C4       0.74834    -0.02191   0.25561   1.00
C3       0.71527    0.04103    0.23920   1.00
C3       0.71516    -0.04504   0.24599   1.00
C3       0.78050    0.04146    0.26815   1.00
C3       0.78325    -0.04170   0.26707   1.00
C2       0.74555    0.10405    0.25310   1.00
C2       0.75019    -0.10622   0.25659   1.00
C3       0.71408    0.08189    0.23882   1.00
C3       0.71603    -0.08591   0.24625   1.00
C3       0.77803    0.08304    0.26745   1.00
C3       0.78300    -0.08336   0.26675   1.00
H1       0.69146    0.02763    0.22763   1.00
H1       0.68898    -0.03306   0.23880   1.00
C5       0.81464    0.02165    0.28207   1.00
C5       0.81709    -0.01998   0.27865   1.00
H1       0.68978    0.09549    0.22776   1.00
H1       0.69116    -0.10091   0.23886   1.00
H1       0.80066    0.09948    0.27736   1.00
H1       0.80734    -0.09848   0.27446   1.00
C6       0.84738    0.04485    0.30056   1.00
C6       0.85502    -0.04119   0.28668   1.00
H2       0.83493    0.06655    0.32019   1.00
H2       0.85963    -0.06310   0.26411   1.00
H2       0.86444    0.02714    0.32059   1.00
H2       0.88014    -0.02228   0.28248   1.00
C6       0.87549    0.06394    0.26993   1.00
C6       0.85696    -0.05942   0.32859   1.00
H2       0.85835    0.07708    0.24645   1.00
H2       0.82929    -0.07383   0.33525   1.00
C6       0.90495    0.09541    0.28504   1.00
C6       0.89061    -0.08911   0.33715   1.00
H2       0.89210    0.04051    0.25609   1.00
H2       0.85920    -0.03546   0.34950   1.00
C6       0.88368    0.13265    0.29954   1.00
C6       0.88599    -0.12708   0.31294   1.00
C6       0.93104    0.07926    0.31824   1.00
C6       0.93125    -0.07107   0.32899   1.00
C6       0.93193    0.10755    0.25072   1.00
C6       0.88894    -0.10054   0.38097   1.00
H2       0.86451    0.14442    0.27696   1.00
H2       0.85731    -0.14020   0.31757   1.00
H2       0.86598    0.12670    0.32525   1.00
H2       0.88928    -0.12154   0.28183   1.00
H2       0.90449    0.15541    0.30746   1.00
H2       0.90797    -0.14863   0.32108   1.00
H2       0.95329    0.10045    0.32664   1.00
H2       0.95455    -0.09098   0.33768   1.00
H2       0.91378    0.07275    0.34415   1.00
H2       0.93498    -0.06494   0.29800   1.00
H2       0.94573    0.05255    0.30906   1.00
H2       0.93494    -0.04385   0.34507   1.00
H2       0.91495    0.11958    0.22659   1.00
H2       0.86090    -0.11383   0.38821   1.00
H2       0.95292    0.12975    0.25979   1.00
H2       0.91178    -0.12149   0.38835   1.00
H2       0.94838    0.08261    0.23970   1.00
H2       0.89283    -0.07502   0.39963   1.00
C4       0.75420    0.24770    0.01975   1.00
C4       0.75561    0.24834    -0.02191   1.00
C3       0.73920    0.21527    0.04103   1.00
C3       0.74599    0.21516    -0.04504   1.00
C3       0.76815    0.28050    0.04146   1.00
C3       0.76707    0.28325    -0.04170   1.00
C2       0.75310    0.24555    0.10405   1.00
C2       0.75659    0.25019    -0.10622   1.00
C3       0.73882    0.21408    0.08189   1.00
C3       0.74625    0.21603    -0.08591   1.00
C3       0.76745    0.27803    0.08304   1.00
C3       0.76675    0.28300    -0.08336   1.00
H1       0.72763    0.19146    0.02763   1.00
H1       0.73880    0.18898    -0.03306   1.00
C5       0.78207    0.31464    0.02165   1.00
C5       0.77865    0.31709    -0.01998   1.00
H1       0.72776    0.18978    0.09549   1.00
H1       0.73886    0.19116    -0.10091   1.00
H1       0.77736    0.30066    0.09948   1.00
H1       0.77446    0.30734    -0.09848   1.00
C6       0.80056    0.34738    0.04485   1.00
C6       0.78668    0.35502    -0.04119   1.00
H2       0.82019    0.33493    0.06655   1.00
H2       0.76411    0.35963    -0.06310   1.00
H2       0.82059    0.36444    0.02714   1.00
H2       0.78248    0.38014    -0.02228   1.00
C6       0.76993    0.37549    0.06394   1.00
C6       0.82859    0.35696    -0.05942   1.00
H2       0.74645    0.35835    0.07708   1.00
H2       0.83525    0.32929    -0.07383   1.00
C6       0.78504    0.40495    0.09541   1.00
C6       0.83715    0.39061    -0.08911   1.00
H2       0.75609    0.39210    0.04051   1.00
H2       0.84950    0.35920    -0.03546   1.00
C6       0.79954    0.38368    0.13265   1.00
C6       0.81294    0.38599    -0.12708   1.00
C6       0.81824    0.43104    0.07926   1.00
C6       0.82899    0.43125    -0.07107   1.00
C6       0.75072    0.43193    0.10755   1.00
C6       0.88097    0.38894    -0.10054   1.00
H2       0.77696    0.36451    0.14442   1.00
H2       0.81757    0.35731    -0.14020   1.00
H2       0.82525    0.36598    0.12670   1.00
H2       0.78183    0.38928    -0.12154   1.00
H2       0.80746    0.40449    0.15541   1.00
H2       0.82108    0.40797    -0.14863   1.00
H2       0.82664    0.45329    0.10045   1.00
H2       0.83768    0.45455    -0.09098   1.00
H2       0.84415    0.41378    0.07275   1.00
H2       0.79800    0.43498    -0.06494   1.00
H2       0.80906    0.44573    0.05255   1.00
H2       0.84507    0.43494    -0.04385   1.00
H2       0.72659    0.41495    0.11958   1.00
H2       0.88821    0.36090    -0.11383   1.00
H2       0.75979    0.45292    0.12975   1.00
H2       0.88835    0.41178    -0.12149   1.00
H2       0.73970    0.44838    0.08261   1.00
H2       0.89963    0.39283    -0.07502   1.00
C4       1.00420    1.00230    1.23025   1.00
C4       1.00561    1.00166    1.27191   1.00
C3       0.98920    1.03473    1.20897   1.00
C3       0.99599    1.03484    1.29504   1.00
C3       1.01815    0.96950    1.20854   1.00
C3       1.01707    0.96675    1.29170   1.00
C2       1.00310    1.00445    1.14595   1.00
C2       1.00659    0.99981    1.35622   1.00
C3       0.98882    1.03592    1.16811   1.00
C3       0.99625    1.03397    1.33591   1.00
C3       1.01745    0.97197    1.16696   1.00
C3       1.01675    0.96700    1.33336   1.00
H1       0.97763    1.05854    1.22237   1.00
H1       0.98880    1.06102    1.28306   1.00
C5       1.03207    0.93536    1.22835   1.00
C5       1.02865    0.93291    1.26998   1.00
H1       0.97776    1.06022    1.15451   1.00
H1       0.98886    1.05884    1.35091   1.00
H1       1.02736    0.94934    1.15052   1.00
H1       1.02446    0.94266    1.34848   1.00
C6       1.05056    0.90262    1.20515   1.00
C6       1.03668    0.89498    1.29119   1.00
H2       1.07019    0.91507    1.18345   1.00
H2       1.01411    0.89037    1.31310   1.00
H2       1.07059    0.88556    1.22286   1.00
H2       1.03248    0.86986    1.27228   1.00
C6       1.01993    0.87451    1.18606   1.00
C6       1.07859    0.89304    1.30942   1.00
H2       0.99645    0.89165    1.17292   1.00
H2       1.08525    0.92071    1.32383   1.00
C6       1.03504    0.84505    1.15459   1.00
C6       1.08715    0.85939    1.33911   1.00
H2       1.00609    0.85790    1.20949   1.00
H2       1.09950    0.89080    1.28546   1.00
C6       1.04954    0.86632    1.11735   1.00
C6       1.06294    0.86401    1.37708   1.00
C6       1.06824    0.81896    1.17074   1.00
C6       1.07899    0.81875    1.32107   1.00
C6       1.00072    0.81807    1.14245   1.00
C6       1.13097    0.86106    1.35054   1.00
H2       1.02696    0.88549    1.10558   1.00
H2       1.06757    0.89269    1.39020   1.00
H2       1.07525    0.88402    1.12330   1.00
H2       1.03183    0.86072    1.37154   1.00
H2       1.05746    0.84551    1.09459   1.00
H2       1.07108    0.84203    1.39863   1.00
H2       1.07664    0.79671    1.14955   1.00
H2       1.08768    0.79545    1.34098   1.00
H2       1.09415    0.83622    1.17725   1.00
H2       1.04800    0.81502    1.31494   1.00
H2       1.05906    0.80427    1.19745   1.00
H2       1.09507    0.81506    1.29385   1.00
H2       0.97659    0.83505    1.13042   1.00
H2       1.13821    0.88910    1.36383   1.00
H2       1.00979    0.79708    1.12025   1.00
H2       1.13835    0.83822    1.37149   1.00
H2       0.98970    0.80162    1.16739   1.00
H2       1.14963    0.85717    1.32502   1.00
C4       1.00230    1.23025    1.00420   1.00
C4       1.00166    1.27191    1.00561   1.00
C3       1.03473    1.20897    0.98920   1.00
C3       1.03484    1.29504    0.99599   1.00
C3       0.96950    1.20854    1.01815   1.00
C3       0.96675    1.29170    1.01707   1.00
C2       1.00445    1.14595    1.00310   1.00
C2       0.99981    1.35622    1.00659   1.00
C3       1.03592    1.16811    0.98882   1.00
C3       1.03397    1.33591    0.99625   1.00
C3       0.97197    1.16696    1.01745   1.00
C3       0.96700    1.33336    1.01675   1.00
H1       1.05854    1.22237    0.97763   1.00
H1       1.06102    1.28306    0.98880   1.00
C5       0.93536    1.22835    1.03207   1.00
C5       0.93291    1.26998    1.02865   1.00
H1       1.06022    1.15451    0.97776   1.00
H1       1.05884    1.35091    0.98886   1.00
H1       0.94934    1.15052    1.02736   1.00
H1       0.94266    1.34848    1.02446   1.00
C6       0.90262    1.20515    1.05056   1.00
C6       0.89498    1.29119    1.03668   1.00
H2       0.91507    1.18345    1.07019   1.00
H2       0.89037    1.31310    1.01411   1.00
H2       0.88556    1.22286    1.07059   1.00
H2       0.86986    1.27228    1.03248   1.00
C6       0.87451    1.18606    1.01993   1.00
C6       0.89304    1.30942    1.07859   1.00
H2       0.89165    1.17292    0.99645   1.00
H2       0.92071    1.32383    1.08525   1.00
C6       0.84505    1.15459    1.03504   1.00
C6       0.85939    1.33911    1.08715   1.00
H2       0.85790    1.20949    1.00609   1.00
H2       0.89080    1.28546    1.09950   1.00
C6       0.86632    1.11735    1.04954   1.00
C6       0.86401    1.37708    1.06294   1.00
C6       0.81896    1.17074    1.06824   1.00
C6       0.81875    1.32107    1.07899   1.00
C6       0.81807    1.14245    1.00072   1.00
C6       0.86106    1.35054    1.13097   1.00
H2       0.88549    1.10558    1.02696   1.00
H2       0.89269    1.39020    1.06757   1.00
H2       0.88402    1.12330    1.07525   1.00
H2       0.86072    1.37154    1.03183   1.00
H2       0.84551    1.09459    1.05746   1.00
H2       0.84203    1.39863    1.07108   1.00
H2       0.79671    1.14955    1.07664   1.00
H2       0.79545    1.34098    1.08768   1.00
H2       0.83622    1.17725    1.09415   1.00
H2       0.81502    1.31494    1.04800   1.00
H2       0.80427    1.19745    1.05906   1.00
H2       0.81506    1.29385    1.09507   1.00
H2       0.83505    1.13042    0.97659   1.00
H2       0.88910    1.36383    1.13821   1.00
H2       0.79708    1.12025    1.00979   1.00
H2       0.83822    1.37149    1.13835   1.00
H2       0.80162    1.16739    0.98970   1.00
H2       0.85717    1.32502    1.14963   1.00
C4       0.76975    1.00420    0.99770   1.00
C4       0.72809    1.00561    0.99834   1.00
C3       0.79103    0.98920    0.96527   1.00
C3       0.70496    0.99599    0.96516   1.00
C3       0.79146    1.01815    1.03050   1.00
C3       0.70830    1.01707    1.03325   1.00
C2       0.85405    1.00310    0.99555   1.00
C2       0.64378    1.00659    1.00019   1.00
C3       0.83189    0.98882    0.96408   1.00
C3       0.66409    0.99625    0.96603   1.00
C3       0.83304    1.01745    1.02803   1.00
C3       0.66664    1.01675    1.03300   1.00
H1       0.77763    0.97763    0.94146   1.00
H1       0.71694    0.98880    0.93898   1.00
C5       0.77165    1.03207    1.06464   1.00
C5       0.73002    1.02865    1.06709   1.00
H1       0.84549    0.97776    0.93978   1.00
H1       0.64909    0.98886    0.94116   1.00
H1       0.84948    1.02736    1.05066   1.00
H1       0.65152    1.02446    1.05734   1.00
C6       0.79485    1.05056    1.09738   1.00
C6       0.70881    1.03668    1.10502   1.00
H2       0.81655    1.07019    1.08493   1.00
H2       0.68690    1.01411    1.10963   1.00
H2       0.77714    1.07059    1.11444   1.00
H2       0.72772    1.03248    1.13014   1.00
C6       0.81394    1.01993    1.12549   1.00
C6       0.69058    1.07859    1.10696   1.00
H2       0.82708    0.99645    1.10835   1.00
H2       0.67617    1.08525    1.07929   1.00
C6       0.84541    1.03504    1.15495   1.00
C6       0.66089    1.08715    1.14061   1.00
H2       0.79051    1.00609    1.14210   1.00
H2       0.71454    1.09950    1.10920   1.00
C6       0.88265    1.04954    1.13368   1.00
C6       0.62292    1.06294    1.13599   1.00
C6       0.82926    1.06824    1.18104   1.00
C6       0.67893    1.07899    1.18125   1.00
C6       0.85755    1.00072    1.18193   1.00
C6       0.64946    1.13097    1.13894   1.00
H2       0.89442    1.02696    1.11451   1.00
H2       0.60980    1.06757    1.10731   1.00
H2       0.87670    1.07525    1.11598   1.00
H2       0.62846    1.03183    1.13928   1.00
H2       0.90541    1.05746    1.15449   1.00
H2       0.60137    1.07108    1.15797   1.00
H2       0.85045    1.07664    1.20329   1.00
H2       0.65902    1.08768    1.20455   1.00
H2       0.82275    1.09415    1.16378   1.00
H2       0.68506    1.04800    1.18498   1.00
H2       0.80255    1.05906    1.19573   1.00
H2       0.70615    1.09507    1.18494   1.00
H2       0.86958    0.97659    1.16495   1.00
H2       0.63617    1.13821    1.11090   1.00
H2       0.87975    1.00979    1.20292   1.00
H2       0.62851    1.13835    1.16178   1.00
H2       0.83261    0.98970    1.19838   1.00
H2       0.67498    1.14963    1.14283   1.00
C4       1.23025    1.00420    1.00230   1.00
C4       1.27191    1.00561    1.00166   1.00
C3       1.20897    0.98920    1.03473   1.00
C3       1.29504    0.99599    1.03484   1.00
C3       1.20854    1.01815    0.96950   1.00
C3       1.29170    1.01707    0.96675   1.00
C2       1.14595    1.00310    1.00445   1.00
C2       1.35622    1.00659    0.99981   1.00
C3       1.16811    0.98882    1.03592   1.00
C3       1.33591    0.99625    1.03397   1.00
C3       1.16696    1.01745    0.97197   1.00
C3       1.33336    1.01675    0.96700   1.00
H1       1.22237    0.97763    1.05854   1.00
H1       1.28306    0.98880    1.06102   1.00
C5       1.22835    1.03207    0.93536   1.00
C5       1.26998    1.02865    0.93291   1.00
H1       1.15451    0.97776    1.06022   1.00
H1       1.35091    0.98886    1.05884   1.00
H1       1.15052    1.02736    0.94934   1.00
H1       1.34848    1.02446    0.94266   1.00
C6       1.20515    1.05056    0.90262   1.00
C6       1.29119    1.03668    0.89498   1.00
H2       1.18345    1.07019    0.91507   1.00
H2       1.31310    1.01411    0.89037   1.00
H2       1.22286    1.07059    0.88556   1.00
H2       1.27228    1.03248    0.86986   1.00
C6       1.18606    1.01993    0.87451   1.00
C6       1.30942    1.07859    0.89304   1.00
H2       1.17292    0.99645    0.89165   1.00
H2       1.32383    1.08525    0.92071   1.00
C6       1.15459    1.03504    0.84505   1.00
C6       1.33911    1.08715    0.85939   1.00
H2       1.20949    1.00609    0.85790   1.00
H2       1.28546    1.09950    0.89080   1.00
C6       1.11735    1.04954    0.86632   1.00
C6       1.37708    1.06294    0.86401   1.00
C6       1.17074    1.06824    0.81896   1.00
C6       1.32107    1.07899    0.81875   1.00
C6       1.14245    1.00072    0.81807   1.00
C6       1.35054    1.13097    0.86106   1.00
H2       1.10558    1.02696    0.88549   1.00
H2       1.39020    1.06757    0.89269   1.00
H2       1.12330    1.07525    0.88402   1.00
H2       1.37154    1.03183    0.86072   1.00
H2       1.09459    1.05746    0.84551   1.00
H2       1.39863    1.07108    0.84203   1.00
H2       1.14955    1.07664    0.79671   1.00
H2       1.34098    1.08768    0.79545   1.00
H2       1.17725    1.09415    0.83622   1.00
H2       1.31494    1.04800    0.81502   1.00
H2       1.19745    1.05906    0.80427   1.00
H2       1.29385    1.09507    0.81506   1.00
H2       1.13042    0.97659    0.83505   1.00
H2       1.36383    1.13821    0.88910   1.00
H2       1.12025    1.00979    0.79708   1.00
H2       1.37149    1.13835    0.83822   1.00
H2       1.16739    0.98970    0.80162   1.00
H2       1.32502    1.14963    0.85717   1.00
C4       0.99770    0.76975    1.00420   1.00
C4       0.99834    0.72809    1.00561   1.00
C3       0.96527    0.79103    0.98920   1.00
C3       0.96516    0.70496    0.99599   1.00
C3       1.03050    0.79146    1.01815   1.00
C3       1.03325    0.70830    1.01707   1.00
C2       0.99555    0.85405    1.00310   1.00
C2       1.00019    0.64378    1.00659   1.00
C3       0.96408    0.83189    0.98882   1.00
C3       0.96603    0.66409    0.99625   1.00
C3       1.02803    0.83304    1.01745   1.00
C3       1.03300    0.66664    1.01675   1.00
H1       0.94146    0.77763    0.97763   1.00
H1       0.93898    0.71694    0.98880   1.00
C5       1.06464    0.77165    1.03207   1.00
C5       1.06709    0.73002    1.02865   1.00
H1       0.93978    0.84549    0.97776   1.00
H1       0.94116    0.64909    0.98886   1.00
H1       1.05066    0.84948    1.02736   1.00
H1       1.05734    0.65152    1.02446   1.00
C6       1.09738    0.79485    1.05056   1.00
C6       1.10502    0.70881    1.03668   1.00
H2       1.08493    0.81655    1.07019   1.00
H2       1.10963    0.68690    1.01411   1.00
H2       1.11444    0.77714    1.07059   1.00
H2       1.13014    0.72772    1.03248   1.00
C6       1.12549    0.81394    1.01993   1.00
C6       1.10696    0.69058    1.07859   1.00
H2       1.10835    0.82708    0.99645   1.00
H2       1.07929    0.67617    1.08525   1.00
C6       1.15495    0.84541    1.03504   1.00
C6       1.14061    0.66089    1.08715   1.00
H2       1.14210    0.79051    1.00609   1.00
H2       1.10920    0.71454    1.09950   1.00
C6       1.13368    0.88265    1.04954   1.00
C6       1.13599    0.62292    1.06294   1.00
C6       1.18104    0.82926    1.06824   1.00
C6       1.18125    0.67893    1.07899   1.00
C6       1.18193    0.85755    1.00072   1.00
C6       1.13894    0.64946    1.13097   1.00
H2       1.11451    0.89442    1.02696   1.00
H2       1.10731    0.60980    1.06757   1.00
H2       1.11598    0.87670    1.07525   1.00
H2       1.13928    0.62846    1.03183   1.00
H2       1.15449    0.90541    1.05746   1.00
H2       1.15797    0.60137    1.07108   1.00
H2       1.20329    0.85045    1.07664   1.00
H2       1.20455    0.65902    1.08768   1.00
H2       1.16378    0.82275    1.09415   1.00
H2       1.18498    0.68506    1.04800   1.00
H2       1.19573    0.80255    1.05906   1.00
H2       1.18494    0.70615    1.09507   1.00
H2       1.16495    0.86958    0.97659   1.00
H2       1.11090    0.63617    1.13821   1.00
H2       1.20292    0.87975    1.00979   1.00
H2       1.16178    0.62851    1.13835   1.00
H2       1.19838    0.83261    0.98970   1.00
H2       1.14283    0.67498    1.14963   1.00
C4       1.00420    0.99770    0.76975   1.00
C4       1.00561    0.99834    0.72809   1.00
C3       0.98920    0.96527    0.79103   1.00
C3       0.99599    0.96516    0.70496   1.00
C3       1.01815    1.03050    0.79146   1.00
C3       1.01707    1.03325    0.70830   1.00
C2       1.00310    0.99555    0.85405   1.00
C2       1.00659    1.00019    0.64378   1.00
C3       0.98882    0.96408    0.83189   1.00
C3       0.99625    0.96603    0.66409   1.00
C3       1.01745    1.02803    0.83304   1.00
C3       1.01675    1.03300    0.66664   1.00
H1       0.97763    0.94146    0.77763   1.00
H1       0.98880    0.93898    0.71694   1.00
C5       1.03207    1.06464    0.77165   1.00
C5       1.02865    1.06709    0.73002   1.00
H1       0.97776    0.93978    0.84549   1.00
H1       0.98886    0.94116    0.64909   1.00
H1       1.02736    1.05066    0.84948   1.00
H1       1.02446    1.05734    0.65152   1.00
C6       1.05056    1.09738    0.79485   1.00
C6       1.03668    1.10502    0.70881   1.00
H2       1.07019    1.08493    0.81655   1.00
H2       1.01411    1.10963    0.68690   1.00
H2       1.07059    1.11444    0.77714   1.00
H2       1.03248    1.13014    0.72772   1.00
C6       1.01993    1.12549    0.81394   1.00
C6       1.07859    1.10696    0.69058   1.00
H2       0.99645    1.10835    0.82708   1.00
H2       1.08525    1.07929    0.67617   1.00
C6       1.03504    1.15495    0.84541   1.00
C6       1.08715    1.14061    0.66089   1.00
H2       1.00609    1.14210    0.79051   1.00
H2       1.09950    1.10920    0.71454   1.00
C6       1.04954    1.13368    0.88265   1.00
C6       1.06294    1.13599    0.62292   1.00
C6       1.06824    1.18104    0.82926   1.00
C6       1.07899    1.18125    0.67893   1.00
C6       1.00072    1.18193    0.85755   1.00
C6       1.13097    1.13894    0.64946   1.00
H2       1.02696    1.11451    0.89442   1.00
H2       1.06757    1.10731    0.60980   1.00
H2       1.07525    1.11598    0.87670   1.00
H2       1.03183    1.13928    0.62846   1.00
H2       1.05746    1.15449    0.90541   1.00
H2       1.07108    1.15797    0.60137   1.00
H2       1.07664    1.20329    0.85045   1.00
H2       1.08768    1.20455    0.65902   1.00
H2       1.09415    1.16378    0.82275   1.00
H2       1.04800    1.18498    0.68506   1.00
H2       1.05906    1.19573    0.80255   1.00
H2       1.09507    1.18494    0.70615   1.00
H2       0.97659    1.16495    0.86958   1.00
H2       1.13821    1.11090    0.63617   1.00
H2       1.00979    1.20292    0.87975   1.00
H2       1.13835    1.16178    0.62851   1.00
H2       0.98970    1.19838    0.83261   1.00
H2       1.14963    1.14283    0.67498   1.00
C4       0.50420    0.50230    1.23025   1.00
C4       0.50561    0.50166    1.27191   1.00
C3       0.48920    0.53473    1.20897   1.00
C3       0.49599    0.53484    1.29504   1.00
C3       0.51815    0.46950    1.20854   1.00
C3       0.51707    0.46675    1.29170   1.00
C2       0.50310    0.50445    1.14595   1.00
C2       0.50659    0.49981    1.35622   1.00
C3       0.48882    0.53592    1.16811   1.00
C3       0.49625    0.53397    1.33591   1.00
C3       0.51745    0.47197    1.16696   1.00
C3       0.51675    0.46700    1.33336   1.00
H1       0.47763    0.55854    1.22237   1.00
H1       0.48880    0.56102    1.28306   1.00
C5       0.53207    0.43536    1.22835   1.00
C5       0.52865    0.43291    1.26998   1.00
H1       0.47776    0.56022    1.15451   1.00
H1       0.48886    0.55884    1.35091   1.00
H1       0.52736    0.44934    1.15052   1.00
H1       0.52446    0.44266    1.34848   1.00
C6       0.55056    0.40262    1.20515   1.00
C6       0.53668    0.39498    1.29119   1.00
H2       0.57019    0.41507    1.18345   1.00
H2       0.51411    0.39037    1.31310   1.00
H2       0.57059    0.38556    1.22286   1.00
H2       0.53248    0.36986    1.27228   1.00
C6       0.51993    0.37451    1.18606   1.00
C6       0.57859    0.39304    1.30942   1.00
H2       0.49645    0.39165    1.17292   1.00
H2       0.58525    0.42071    1.32383   1.00
C6       0.53504    0.34505    1.15459   1.00
C6       0.58715    0.35939    1.33911   1.00
H2       0.50609    0.35790    1.20949   1.00
H2       0.59950    0.39080    1.28546   1.00
C6       0.54954    0.36632    1.11735   1.00
C6       0.56294    0.36401    1.37708   1.00
C6       0.56824    0.31896    1.17074   1.00
C6       0.57899    0.31875    1.32107   1.00
C6       0.50072    0.31807    1.14245   1.00
C6       0.63097    0.36106    1.35054   1.00
H2       0.52696    0.38549    1.10558   1.00
H2       0.56757    0.39269    1.39020   1.00
H2       0.57525    0.38402    1.12330   1.00
H2       0.53183    0.36072    1.37154   1.00
H2       0.55746    0.34551    1.09459   1.00
H2       0.57108    0.34203    1.39863   1.00
H2       0.57664    0.29671    1.14955   1.00
H2       0.58768    0.29545    1.34098   1.00
H2       0.59415    0.33622    1.17725   1.00
H2       0.54800    0.31502    1.31494   1.00
H2       0.55906    0.30427    1.19745   1.00
H2       0.59507    0.31506    1.29385   1.00
H2       0.47659    0.33505    1.13042   1.00
H2       0.63821    0.38910    1.36383   1.00
H2       0.50979    0.29708    1.12025   1.00
H2       0.63835    0.33822    1.37149   1.00
H2       0.48970    0.30162    1.16739   1.00
H2       0.64963    0.35717    1.32502   1.00
C4       0.50230    0.73025    1.00420   1.00
C4       0.50166    0.77191    1.00561   1.00
C3       0.53473    0.70897    0.98920   1.00
C3       0.53484    0.79504    0.99599   1.00
C3       0.46950    0.70854    1.01815   1.00
C3       0.46675    0.79170    1.01707   1.00
C2       0.50445    0.64595    1.00310   1.00
C2       0.49981    0.85622    1.00659   1.00
C3       0.53592    0.66811    0.98882   1.00
C3       0.53397    0.83591    0.99625   1.00
C3       0.47197    0.66696    1.01745   1.00
C3       0.46700    0.83336    1.01675   1.00
H1       0.55854    0.72237    0.97763   1.00
H1       0.56102    0.78306    0.98880   1.00
C5       0.43536    0.72835    1.03207   1.00
C5       0.43291    0.76998    1.02865   1.00
H1       0.56022    0.65451    0.97776   1.00
H1       0.55884    0.85091    0.98886   1.00
H1       0.44934    0.65052    1.02736   1.00
H1       0.44266    0.84848    1.02446   1.00
C6       0.40262    0.70515    1.05056   1.00
C6       0.39498    0.79119    1.03668   1.00
H2       0.41507    0.68345    1.07019   1.00
H2       0.39037    0.81310    1.01411   1.00
H2       0.38556    0.72286    1.07059   1.00
H2       0.36986    0.77228    1.03248   1.00
C6       0.37451    0.68606    1.01993   1.00
C6       0.39304    0.80942    1.07859   1.00
H2       0.39165    0.67292    0.99645   1.00
H2       0.42071    0.82383    1.08525   1.00
C6       0.34505    0.65459    1.03504   1.00
C6       0.35939    0.83911    1.08715   1.00
H2       0.35790    0.70949    1.00609   1.00
H2       0.39080    0.78546    1.09950   1.00
C6       0.36632    0.61735    1.04954   1.00
C6       0.36401    0.87708    1.06294   1.00
C6       0.31896    0.67074    1.06824   1.00
C6       0.31875    0.82107    1.07899   1.00
C6       0.31807    0.64245    1.00072   1.00
C6       0.36106    0.85054    1.13097   1.00
H2       0.38549    0.60558    1.02696   1.00
H2       0.39269    0.89020    1.06757   1.00
H2       0.38402    0.62330    1.07525   1.00
H2       0.36072    0.87154    1.03183   1.00
H2       0.34551    0.59459    1.05746   1.00
H2       0.34203    0.89863    1.07108   1.00
H2       0.29671    0.64955    1.07664   1.00
H2       0.29545    0.84098    1.08768   1.00
H2       0.33622    0.67725    1.09415   1.00
H2       0.31502    0.81494    1.04800   1.00
H2       0.30427    0.69745    1.05906   1.00
H2       0.31506    0.79385    1.09507   1.00
H2       0.33505    0.63042    0.97659   1.00
H2       0.38910    0.86383    1.13821   1.00
H2       0.29708    0.62025    1.00979   1.00
H2       0.33822    0.87149    1.13835   1.00
H2       0.30162    0.66739    0.98970   1.00
H2       0.35717    0.82502    1.14963   1.00
C4       0.26975    0.50420    0.99770   1.00
C4       0.22809    0.50561    0.99834   1.00
C3       0.29103    0.48920    0.96527   1.00
C3       0.20496    0.49599    0.96516   1.00
C3       0.29146    0.51815    1.03050   1.00
C3       0.20830    0.51707    1.03325   1.00
C2       0.35405    0.50310    0.99555   1.00
C2       0.14378    0.50659    1.00019   1.00
C3       0.33189    0.48882    0.96408   1.00
C3       0.16409    0.49625    0.96603   1.00
C3       0.33304    0.51745    1.02803   1.00
C3       0.16664    0.51675    1.03300   1.00
H1       0.27763    0.47763    0.94146   1.00
H1       0.21694    0.48880    0.93898   1.00
C5       0.27165    0.53207    1.06464   1.00
C5       0.23002    0.52865    1.06709   1.00
H1       0.34549    0.47776    0.93978   1.00
H1       0.14909    0.48886    0.94116   1.00
H1       0.34948    0.52736    1.05066   1.00
H1       0.15152    0.52446    1.05734   1.00
C6       0.29485    0.55056    1.09738   1.00
C6       0.20881    0.53668    1.10502   1.00
H2       0.31655    0.57019    1.08493   1.00
H2       0.18690    0.51411    1.10963   1.00
H2       0.27714    0.57059    1.11444   1.00
H2       0.22772    0.53248    1.13014   1.00
C6       0.31394    0.51993    1.12549   1.00
C6       0.19058    0.57859    1.10696   1.00
H2       0.32708    0.49645    1.10835   1.00
H2       0.17617    0.58525    1.07929   1.00
C6       0.34541    0.53504    1.15495   1.00
C6       0.16089    0.58715    1.14061   1.00
H2       0.29051    0.50609    1.14210   1.00
H2       0.21454    0.59950    1.10920   1.00
C6       0.38265    0.54954    1.13368   1.00
C6       0.12292    0.56294    1.13599   1.00
C6       0.32926    0.56824    1.18104   1.00
C6       0.17893    0.57899    1.18125   1.00
C6       0.35755    0.50072    1.18193   1.00
C6       0.14946    0.63097    1.13894   1.00
H2       0.39442    0.52696    1.11451   1.00
H2       0.10980    0.56757    1.10731   1.00
H2       0.37670    0.57525    1.11598   1.00
H2       0.12846    0.53183    1.13928   1.00
H2       0.40541    0.55746    1.15449   1.00
H2       0.10137    0.57108    1.15797   1.00
H2       0.35045    0.57664    1.20329   1.00
H2       0.15902    0.58768    1.20455   1.00
H2       0.32275    0.59415    1.16378   1.00
H2       0.18506    0.54800    1.18498   1.00
H2       0.30255    0.55906    1.19573   1.00
H2       0.20615    0.59507    1.18494   1.00
H2       0.36958    0.47659    1.16495   1.00
H2       0.13617    0.63821    1.11090   1.00
H2       0.37975    0.50979    1.20292   1.00
H2       0.12851    0.63835    1.16178   1.00
H2       0.33261    0.48970    1.19838   1.00
H2       0.17498    0.64963    1.14283   1.00
C4       0.73025    0.50420    1.00230   1.00
C4       0.77191    0.50561    1.00166   1.00
C3       0.70897    0.48920    1.03473   1.00
C3       0.79504    0.49599    1.03484   1.00
C3       0.70854    0.51815    0.96950   1.00
C3       0.79170    0.51707    0.96675   1.00
C2       0.64595    0.50310    1.00445   1.00
C2       0.85622    0.50659    0.99981   1.00
C3       0.66811    0.48882    1.03592   1.00
C3       0.83591    0.49625    1.03397   1.00
C3       0.66696    0.51745    0.97197   1.00
C3       0.83336    0.51675    0.96700   1.00
H1       0.72237    0.47763    1.05854   1.00
H1       0.78306    0.48880    1.06102   1.00
C5       0.72835    0.53207    0.93536   1.00
C5       0.76998    0.52865    0.93291   1.00
H1       0.65451    0.47776    1.06022   1.00
H1       0.85091    0.48886    1.05884   1.00
H1       0.65052    0.52736    0.94934   1.00
H1       0.84848    0.52446    0.94266   1.00
C6       0.70515    0.55056    0.90262   1.00
C6       0.79119    0.53668    0.89498   1.00
H2       0.68345    0.57019    0.91507   1.00
H2       0.81310    0.51411    0.89037   1.00
H2       0.72286    0.57059    0.88556   1.00
H2       0.77228    0.53248    0.86986   1.00
C6       0.68606    0.51993    0.87451   1.00
C6       0.80942    0.57859    0.89304   1.00
H2       0.67292    0.49645    0.89165   1.00
H2       0.82383    0.58525    0.92071   1.00
C6       0.65459    0.53504    0.84505   1.00
C6       0.83911    0.58715    0.85939   1.00
H2       0.70949    0.50609    0.85790   1.00
H2       0.78546    0.59950    0.89080   1.00
C6       0.61735    0.54954    0.86632   1.00
C6       0.87708    0.56294    0.86401   1.00
C6       0.67074    0.56824    0.81896   1.00
C6       0.82107    0.57899    0.81875   1.00
C6       0.64245    0.50072    0.81807   1.00
C6       0.85054    0.63097    0.86106   1.00
H2       0.60558    0.52696    0.88549   1.00
H2       0.89020    0.56757    0.89269   1.00
H2       0.62330    0.57525    0.88402   1.00
H2       0.87154    0.53183    0.86072   1.00
H2       0.59459    0.55746    0.84551   1.00
H2       0.89863    0.57108    0.84203   1.00
H2       0.64955    0.57664    0.79671   1.00
H2       0.84098    0.58768    0.79545   1.00
H2       0.67725    0.59415    0.83622   1.00
H2       0.81494    0.54800    0.81502   1.00
H2       0.69745    0.55906    0.80427   1.00
H2       0.79385    0.59507    0.81506   1.00
H2       0.63042    0.47659    0.83505   1.00
H2       0.86383    0.63821    0.88910   1.00
H2       0.62025    0.50979    0.79708   1.00
H2       0.87149    0.63835    0.83822   1.00
H2       0.66739    0.48970    0.80162   1.00
H2       0.82502    0.64963    0.85717   1.00
C4       0.49770    0.26975    1.00420   1.00
C4       0.49834    0.22809    1.00561   1.00
C3       0.46527    0.29103    0.98920   1.00
C3       0.46516    0.20496    0.99599   1.00
C3       0.53050    0.29146    1.01815   1.00
C3       0.53325    0.20830    1.01707   1.00
C2       0.49555    0.35405    1.00310   1.00
C2       0.50019    0.14378    1.00659   1.00
C3       0.46408    0.33189    0.98882   1.00
C3       0.46603    0.16409    0.99625   1.00
C3       0.52803    0.33304    1.01745   1.00
C3       0.53300    0.16664    1.01675   1.00
H1       0.44146    0.27763    0.97763   1.00
H1       0.43898    0.21694    0.98880   1.00
C5       0.56464    0.27165    1.03207   1.00
C5       0.56709    0.23002    1.02865   1.00
H1       0.43978    0.34549    0.97776   1.00
H1       0.44116    0.14909    0.98886   1.00
H1       0.55066    0.34948    1.02736   1.00
H1       0.55734    0.15152    1.02446   1.00
C6       0.59738    0.29485    1.05056   1.00
C6       0.60502    0.20881    1.03668   1.00
H2       0.58493    0.31655    1.07019   1.00
H2       0.60963    0.18690    1.01411   1.00
H2       0.61444    0.27714    1.07059   1.00
H2       0.63014    0.22772    1.03248   1.00
C6       0.62549    0.31394    1.01993   1.00
C6       0.60696    0.19058    1.07859   1.00
H2       0.60835    0.32708    0.99645   1.00
H2       0.57929    0.17617    1.08525   1.00
C6       0.65495    0.34541    1.03504   1.00
C6       0.64061    0.16089    1.08715   1.00
H2       0.64210    0.29051    1.00609   1.00
H2       0.60920    0.21454    1.09950   1.00
C6       0.63368    0.38265    1.04954   1.00
C6       0.63599    0.12292    1.06294   1.00
C6       0.68104    0.32926    1.06824   1.00
C6       0.68125    0.17893    1.07899   1.00
C6       0.68193    0.35755    1.00072   1.00
C6       0.63894    0.14946    1.13097   1.00
H2       0.61451    0.39442    1.02696   1.00
H2       0.60731    0.10980    1.06757   1.00
H2       0.61598    0.37670    1.07525   1.00
H2       0.63928    0.12846    1.03183   1.00
H2       0.65449    0.40541    1.05746   1.00
H2       0.65797    0.10137    1.07108   1.00
H2       0.70329    0.35045    1.07664   1.00
H2       0.70455    0.15902    1.08768   1.00
H2       0.66378    0.32275    1.09415   1.00
H2       0.68498    0.18506    1.04800   1.00
H2       0.69573    0.30255    1.05906   1.00
H2       0.68494    0.20615    1.09507   1.00
H2       0.66495    0.36958    0.97659   1.00
H2       0.61090    0.13617    1.13821   1.00
H2       0.70292    0.37975    1.00979   1.00
H2       0.66178    0.12851    1.13835   1.00
H2       0.69838    0.33261    0.98970   1.00
H2       0.64283    0.17498    1.14963   1.00
C4       0.50420    0.49770    0.76975   1.00
C4       0.50561    0.49834    0.72809   1.00
C3       0.48920    0.46527    0.79103   1.00
C3       0.49599    0.46516    0.70496   1.00
C3       0.51815    0.53050    0.79146   1.00
C3       0.51707    0.53325    0.70830   1.00
C2       0.50310    0.49555    0.85405   1.00
C2       0.50659    0.50019    0.64378   1.00
C3       0.48882    0.46408    0.83189   1.00
C3       0.49625    0.46603    0.66409   1.00
C3       0.51745    0.52803    0.83304   1.00
C3       0.51675    0.53300    0.66664   1.00
H1       0.47763    0.44146    0.77763   1.00
H1       0.48880    0.43898    0.71694   1.00
C5       0.53207    0.56464    0.77165   1.00
C5       0.52865    0.56709    0.73002   1.00
H1       0.47776    0.43978    0.84549   1.00
H1       0.48886    0.44116    0.64909   1.00
H1       0.52736    0.55066    0.84948   1.00
H1       0.52446    0.55734    0.65152   1.00
C6       0.55056    0.59738    0.79485   1.00
C6       0.53668    0.60502    0.70881   1.00
H2       0.57019    0.58493    0.81655   1.00
H2       0.51411    0.60963    0.68690   1.00
H2       0.57059    0.61444    0.77714   1.00
H2       0.53248    0.63014    0.72772   1.00
C6       0.51993    0.62549    0.81394   1.00
C6       0.57859    0.60696    0.69058   1.00
H2       0.49645    0.60835    0.82708   1.00
H2       0.58525    0.57929    0.67617   1.00
C6       0.53504    0.65495    0.84541   1.00
C6       0.58715    0.64061    0.66089   1.00
H2       0.50609    0.64210    0.79051   1.00
H2       0.59950    0.60920    0.71454   1.00
C6       0.54954    0.63368    0.88265   1.00
C6       0.56294    0.63599    0.62292   1.00
C6       0.56824    0.68104    0.82926   1.00
C6       0.57899    0.68125    0.67893   1.00
C6       0.50072    0.68193    0.85755   1.00
C6       0.63097    0.63894    0.64946   1.00
H2       0.52696    0.61451    0.89442   1.00
H2       0.56757    0.60731    0.60980   1.00
H2       0.57525    0.61598    0.87670   1.00
H2       0.53183    0.63928    0.62846   1.00
H2       0.55746    0.65449    0.90541   1.00
H2       0.57108    0.65797    0.60137   1.00
H2       0.57664    0.70329    0.85045   1.00
H2       0.58768    0.70455    0.65902   1.00
H2       0.59415    0.66378    0.82275   1.00
H2       0.54800    0.68498    0.68506   1.00
H2       0.55906    0.69573    0.80255   1.00
H2       0.59507    0.68494    0.70615   1.00
H2       0.47659    0.66495    0.86958   1.00
H2       0.63821    0.61090    0.63617   1.00
H2       0.50979    0.70292    0.87975   1.00
H2       0.63835    0.66178    0.62851   1.00
H2       0.48970    0.69838    0.83261   1.00
H2       0.64963    0.64283    0.67498   1.00
C4       0.50420    1.00230    0.73025   1.00
C4       0.50561    1.00166    0.77191   1.00
C3       0.48920    1.03473    0.70897   1.00
C3       0.49599    1.03484    0.79504   1.00
C3       0.51815    0.96950    0.70854   1.00
C3       0.51707    0.96675    0.79170   1.00
C2       0.50310    1.00445    0.64595   1.00
C2       0.50659    0.99981    0.85622   1.00
C3       0.48882    1.03592    0.66811   1.00
C3       0.49625    1.03397    0.83591   1.00
C3       0.51745    0.97197    0.66696   1.00
C3       0.51675    0.96700    0.83336   1.00
H1       0.47763    1.05854    0.72237   1.00
H1       0.48880    1.06102    0.78306   1.00
C5       0.53207    0.93536    0.72835   1.00
C5       0.52865    0.93291    0.76998   1.00
H1       0.47776    1.06022    0.65451   1.00
H1       0.48886    1.05884    0.85091   1.00
H1       0.52736    0.94934    0.65052   1.00
H1       0.52446    0.94266    0.84848   1.00
C6       0.55056    0.90262    0.70515   1.00
C6       0.53668    0.89498    0.79119   1.00
H2       0.57019    0.91507    0.68345   1.00
H2       0.51411    0.89037    0.81310   1.00
H2       0.57059    0.88556    0.72286   1.00
H2       0.53248    0.86986    0.77228   1.00
C6       0.51993    0.87451    0.68606   1.00
C6       0.57859    0.89304    0.80942   1.00
H2       0.49645    0.89165    0.67292   1.00
H2       0.58525    0.92071    0.82383   1.00
C6       0.53504    0.84505    0.65459   1.00
C6       0.58715    0.85939    0.83911   1.00
H2       0.50609    0.85790    0.70949   1.00
H2       0.59950    0.89080    0.78546   1.00
C6       0.54954    0.86632    0.61735   1.00
C6       0.56294    0.86401    0.87708   1.00
C6       0.56824    0.81896    0.67074   1.00
C6       0.57899    0.81875    0.82107   1.00
C6       0.50072    0.81807    0.64245   1.00
C6       0.63097    0.86106    0.85054   1.00
H2       0.52696    0.88549    0.60558   1.00
H2       0.56757    0.89269    0.89020   1.00
H2       0.57525    0.88402    0.62330   1.00
H2       0.53183    0.86072    0.87154   1.00
H2       0.55746    0.84551    0.59459   1.00
H2       0.57108    0.84203    0.89863   1.00
H2       0.57664    0.79671    0.64955   1.00
H2       0.58768    0.79545    0.84098   1.00
H2       0.59415    0.83622    0.67725   1.00
H2       0.54800    0.81502    0.81494   1.00
H2       0.55906    0.80427    0.69745   1.00
H2       0.59507    0.81506    0.79385   1.00
H2       0.47659    0.83505    0.63042   1.00
H2       0.63821    0.88910    0.86383   1.00
H2       0.50979    0.79708    0.62025   1.00
H2       0.63835    0.83822    0.87149   1.00
H2       0.48970    0.80162    0.66739   1.00
H2       0.64963    0.85717    0.82502   1.00
C4       0.50230    1.23025    0.50420   1.00
C4       0.50166    1.27191    0.50561   1.00
C3       0.53473    1.20897    0.48920   1.00
C3       0.53484    1.29504    0.49599   1.00
C3       0.46950    1.20854    0.51815   1.00
C3       0.46675    1.29170    0.51707   1.00
C2       0.50445    1.14595    0.50310   1.00
C2       0.49981    1.35622    0.50659   1.00
C3       0.53592    1.16811    0.48882   1.00
C3       0.53397    1.33591    0.49625   1.00
C3       0.47197    1.16696    0.51745   1.00
C3       0.46700    1.33336    0.51675   1.00
H1       0.55854    1.22237    0.47763   1.00
H1       0.56102    1.28306    0.48880   1.00
C5       0.43536    1.22835    0.53207   1.00
C5       0.43291    1.26998    0.52865   1.00
H1       0.56022    1.15451    0.47776   1.00
H1       0.55884    1.35091    0.48886   1.00
H1       0.44934    1.15052    0.52736   1.00
H1       0.44266    1.34848    0.52446   1.00
C6       0.40262    1.20515    0.55056   1.00
C6       0.39498    1.29119    0.53668   1.00
H2       0.41507    1.18345    0.57019   1.00
H2       0.39037    1.31310    0.51411   1.00
H2       0.38556    1.22286    0.57059   1.00
H2       0.36986    1.27228    0.53248   1.00
C6       0.37451    1.18606    0.51993   1.00
C6       0.39304    1.30942    0.57859   1.00
H2       0.39165    1.17292    0.49645   1.00
H2       0.42071    1.32383    0.58525   1.00
C6       0.34505    1.15459    0.53504   1.00
C6       0.35939    1.33911    0.58715   1.00
H2       0.35790    1.20949    0.50609   1.00
H2       0.39080    1.28546    0.59950   1.00
C6       0.36632    1.11735    0.54954   1.00
C6       0.36401    1.37708    0.56294   1.00
C6       0.31896    1.17074    0.56824   1.00
C6       0.31875    1.32107    0.57899   1.00
C6       0.31807    1.14245    0.50072   1.00
C6       0.36106    1.35054    0.63097   1.00
H2       0.38549    1.10558    0.52696   1.00
H2       0.39269    1.39020    0.56757   1.00
H2       0.38402    1.12330    0.57525   1.00
H2       0.36072    1.37154    0.53183   1.00
H2       0.34551    1.09459    0.55746   1.00
H2       0.34203    1.39863    0.57108   1.00
H2       0.29671    1.14955    0.57664   1.00
H2       0.29545    1.34098    0.58768   1.00
H2       0.33622    1.17725    0.59415   1.00
H2       0.31502    1.31494    0.54800   1.00
H2       0.30427    1.19745    0.55906   1.00
H2       0.31506    1.29385    0.59507   1.00
H2       0.33505    1.13042    0.47659   1.00
H2       0.38910    1.36383    0.63821   1.00
H2       0.29708    1.12025    0.50979   1.00
H2       0.33822    1.37149    0.63835   1.00
H2       0.30162    1.16739    0.48970   1.00
H2       0.35717    1.32502    0.64963   1.00
C4       0.26975    1.00420    0.49770   1.00
C4       0.22809    1.00561    0.49834   1.00
C3       0.29103    0.98920    0.46527   1.00
C3       0.20496    0.99599    0.46516   1.00
C3       0.29146    1.01815    0.53050   1.00
C3       0.20830    1.01707    0.53325   1.00
C2       0.35405    1.00310    0.49555   1.00
C2       0.14378    1.00659    0.50019   1.00
C3       0.33189    0.98882    0.46408   1.00
C3       0.16409    0.99625    0.46603   1.00
C3       0.33304    1.01745    0.52803   1.00
C3       0.16664    1.01675    0.53300   1.00
H1       0.27763    0.97763    0.44146   1.00
H1       0.21694    0.98880    0.43898   1.00
C5       0.27165    1.03207    0.56464   1.00
C5       0.23002    1.02865    0.56709   1.00
H1       0.34549    0.97776    0.43978   1.00
H1       0.14909    0.98886    0.44116   1.00
H1       0.34948    1.02736    0.55066   1.00
H1       0.15152    1.02446    0.55734   1.00
C6       0.29485    1.05056    0.59738   1.00
C6       0.20881    1.03668    0.60502   1.00
H2       0.31655    1.07019    0.58493   1.00
H2       0.18690    1.01411    0.60963   1.00
H2       0.27714    1.07059    0.61444   1.00
H2       0.22772    1.03248    0.63014   1.00
C6       0.31394    1.01993    0.62549   1.00
C6       0.19058    1.07859    0.60696   1.00
H2       0.32708    0.99645    0.60835   1.00
H2       0.17617    1.08525    0.57929   1.00
C6       0.34541    1.03504    0.65495   1.00
C6       0.16089    1.08715    0.64061   1.00
H2       0.29051    1.00609    0.64210   1.00
H2       0.21454    1.09950    0.60920   1.00
C6       0.38265    1.04954    0.63368   1.00
C6       0.12292    1.06294    0.63599   1.00
C6       0.32926    1.06824    0.68104   1.00
C6       0.17893    1.07899    0.68125   1.00
C6       0.35755    1.00072    0.68193   1.00
C6       0.14946    1.13097    0.63894   1.00
H2       0.39442    1.02696    0.61451   1.00
H2       0.10980    1.06757    0.60731   1.00
H2       0.37670    1.07525    0.61598   1.00
H2       0.12846    1.03183    0.63928   1.00
H2       0.40541    1.05746    0.65449   1.00
H2       0.10137    1.07108    0.65797   1.00
H2       0.35045    1.07664    0.70329   1.00
H2       0.15902    1.08768    0.70455   1.00
H2       0.32275    1.09415    0.66378   1.00
H2       0.18506    1.04800    0.68498   1.00
H2       0.30255    1.05906    0.69573   1.00
H2       0.20615    1.09507    0.68494   1.00
H2       0.36958    0.97659    0.66495   1.00
H2       0.13617    1.13821    0.61090   1.00
H2       0.37975    1.00979    0.70292   1.00
H2       0.12851    1.13835    0.66178   1.00
H2       0.33261    0.98970    0.69838   1.00
H2       0.17498    1.14963    0.64283   1.00
C4       0.73025    1.00420    0.50230   1.00
C4       0.77191    1.00561    0.50166   1.00
C3       0.70897    0.98920    0.53473   1.00
C3       0.79504    0.99599    0.53484   1.00
C3       0.70854    1.01815    0.46950   1.00
C3       0.79170    1.01707    0.46675   1.00
C2       0.64595    1.00310    0.50445   1.00
C2       0.85622    1.00659    0.49981   1.00
C3       0.66811    0.98882    0.53592   1.00
C3       0.83591    0.99625    0.53397   1.00
C3       0.66696    1.01745    0.47197   1.00
C3       0.83336    1.01675    0.46700   1.00
H1       0.72237    0.97763    0.55854   1.00
H1       0.78306    0.98880    0.56102   1.00
C5       0.72835    1.03207    0.43536   1.00
C5       0.76998    1.02865    0.43291   1.00
H1       0.65451    0.97776    0.56022   1.00
H1       0.85091    0.98886    0.55884   1.00
H1       0.65052    1.02736    0.44934   1.00
H1       0.84848    1.02446    0.44266   1.00
C6       0.70515    1.05056    0.40262   1.00
C6       0.79119    1.03668    0.39498   1.00
H2       0.68345    1.07019    0.41507   1.00
H2       0.81310    1.01411    0.39037   1.00
H2       0.72286    1.07059    0.38556   1.00
H2       0.77228    1.03248    0.36986   1.00
C6       0.68606    1.01993    0.37451   1.00
C6       0.80942    1.07859    0.39304   1.00
H2       0.67292    0.99645    0.39165   1.00
H2       0.82383    1.08525    0.42071   1.00
C6       0.65459    1.03504    0.34505   1.00
C6       0.83911    1.08715    0.35939   1.00
H2       0.70949    1.00609    0.35790   1.00
H2       0.78546    1.09950    0.39080   1.00
C6       0.61735    1.04954    0.36632   1.00
C6       0.87708    1.06294    0.36401   1.00
C6       0.67074    1.06824    0.31896   1.00
C6       0.82107    1.07899    0.31875   1.00
C6       0.64245    1.00072    0.31807   1.00
C6       0.85054    1.13097    0.36106   1.00
H2       0.60558    1.02696    0.38549   1.00
H2       0.89020    1.06757    0.39269   1.00
H2       0.62330    1.07525    0.38402   1.00
H2       0.87154    1.03183    0.36072   1.00
H2       0.59459    1.05746    0.34551   1.00
H2       0.89863    1.07108    0.34203   1.00
H2       0.64955    1.07664    0.29671   1.00
H2       0.84098    1.08768    0.29545   1.00
H2       0.67725    1.09415    0.33622   1.00
H2       0.81494    1.04800    0.31502   1.00
H2       0.69745    1.05906    0.30427   1.00
H2       0.79385    1.09507    0.31506   1.00
H2       0.63042    0.97659    0.33505   1.00
H2       0.86383    1.13821    0.38910   1.00
H2       0.62025    1.00979    0.29708   1.00
H2       0.87149    1.13835    0.33822   1.00
H2       0.66739    0.98970    0.30162   1.00
H2       0.82502    1.14963    0.35717   1.00
C4       0.49770    0.76975    0.50420   1.00
C4       0.49834    0.72809    0.50561   1.00
C3       0.46527    0.79103    0.48920   1.00
C3       0.46516    0.70496    0.49599   1.00
C3       0.53050    0.79146    0.51815   1.00
C3       0.53325    0.70830    0.51707   1.00
C2       0.49555    0.85405    0.50310   1.00
C2       0.50019    0.64378    0.50659   1.00
C3       0.46408    0.83189    0.48882   1.00
C3       0.46603    0.66409    0.49625   1.00
C3       0.52803    0.83304    0.51745   1.00
C3       0.53300    0.66664    0.51675   1.00
H1       0.44146    0.77763    0.47763   1.00
H1       0.43898    0.71694    0.48880   1.00
C5       0.56464    0.77165    0.53207   1.00
C5       0.56709    0.73002    0.52865   1.00
H1       0.43978    0.84549    0.47776   1.00
H1       0.44116    0.64909    0.48886   1.00
H1       0.55066    0.84948    0.52736   1.00
H1       0.55734    0.65152    0.52446   1.00
C6       0.59738    0.79485    0.55056   1.00
C6       0.60502    0.70881    0.53668   1.00
H2       0.58493    0.81655    0.57019   1.00
H2       0.60963    0.68690    0.51411   1.00
H2       0.61444    0.77714    0.57059   1.00
H2       0.63014    0.72772    0.53248   1.00
C6       0.62549    0.81394    0.51993   1.00
C6       0.60696    0.69058    0.57859   1.00
H2       0.60835    0.82708    0.49645   1.00
H2       0.57929    0.67617    0.58525   1.00
C6       0.65495    0.84541    0.53504   1.00
C6       0.64061    0.66089    0.58715   1.00
H2       0.64210    0.79051    0.50609   1.00
H2       0.60920    0.71454    0.59950   1.00
C6       0.63368    0.88265    0.54954   1.00
C6       0.63599    0.62292    0.56294   1.00
C6       0.68104    0.82926    0.56824   1.00
C6       0.68125    0.67893    0.57899   1.00
C6       0.68193    0.85755    0.50072   1.00
C6       0.63894    0.64946    0.63097   1.00
H2       0.61451    0.89442    0.52696   1.00
H2       0.60731    0.60980    0.56757   1.00
H2       0.61598    0.87670    0.57525   1.00
H2       0.63928    0.62846    0.53183   1.00
H2       0.65449    0.90541    0.55746   1.00
H2       0.65797    0.60137    0.57108   1.00
H2       0.70329    0.85045    0.57664   1.00
H2       0.70455    0.65902    0.58768   1.00
H2       0.66378    0.82275    0.59415   1.00
H2       0.68498    0.68506    0.54800   1.00
H2       0.69573    0.80255    0.55906   1.00
H2       0.68494    0.70615    0.59507   1.00
H2       0.66495    0.86958    0.47659   1.00
H2       0.61090    0.63617    0.63821   1.00
H2       0.70292    0.87975    0.50979   1.00
H2       0.66178    0.62851    0.63835   1.00
H2       0.69838    0.83261    0.48970   1.00
H2       0.64283    0.67498    0.64963   1.00
C4       0.50420    0.99770    0.26975   1.00
C4       0.50561    0.99834    0.22809   1.00
C3       0.48920    0.96527    0.29103   1.00
C3       0.49599    0.96516    0.20496   1.00
C3       0.51815    1.03050    0.29146   1.00
C3       0.51707    1.03325    0.20830   1.00
C2       0.50310    0.99555    0.35405   1.00
C2       0.50659    1.00019    0.14378   1.00
C3       0.48882    0.96408    0.33189   1.00
C3       0.49625    0.96603    0.16409   1.00
C3       0.51745    1.02803    0.33304   1.00
C3       0.51675    1.03300    0.16664   1.00
H1       0.47763    0.94146    0.27763   1.00
H1       0.48880    0.93898    0.21694   1.00
C5       0.53207    1.06464    0.27165   1.00
C5       0.52865    1.06709    0.23002   1.00
H1       0.47776    0.93978    0.34549   1.00
H1       0.48886    0.94116    0.14909   1.00
H1       0.52736    1.05066    0.34948   1.00
H1       0.52446    1.05734    0.15152   1.00
C6       0.55056    1.09738    0.29485   1.00
C6       0.53668    1.10502    0.20881   1.00
H2       0.57019    1.08493    0.31655   1.00
H2       0.51411    1.10963    0.18690   1.00
H2       0.57059    1.11444    0.27714   1.00
H2       0.53248    1.13014    0.22772   1.00
C6       0.51993    1.12549    0.31394   1.00
C6       0.57859    1.10696    0.19058   1.00
H2       0.49645    1.10835    0.32708   1.00
H2       0.58525    1.07929    0.17617   1.00
C6       0.53504    1.15495    0.34541   1.00
C6       0.58715    1.14061    0.16089   1.00
H2       0.50609    1.14210    0.29051   1.00
H2       0.59950    1.10920    0.21454   1.00
C6       0.54954    1.13368    0.38265   1.00
C6       0.56294    1.13599    0.12292   1.00
C6       0.56824    1.18104    0.32926   1.00
C6       0.57899    1.18125    0.17893   1.00
C6       0.50072    1.18193    0.35755   1.00
C6       0.63097    1.13894    0.14946   1.00
H2       0.52696    1.11451    0.39442   1.00
H2       0.56757    1.10731    0.10980   1.00
H2       0.57525    1.11598    0.37670   1.00
H2       0.53183    1.13928    0.12846   1.00
H2       0.55746    1.15449    0.40541   1.00
H2       0.57108    1.15797    0.10137   1.00
H2       0.57664    1.20329    0.35045   1.00
H2       0.58768    1.20455    0.15902   1.00
H2       0.59415    1.16378    0.32275   1.00
H2       0.54800    1.18498    0.18506   1.00
H2       0.55906    1.19573    0.30255   1.00
H2       0.59507    1.18494    0.20615   1.00
H2       0.47659    1.16495    0.36958   1.00
H2       0.63821    1.11090    0.13617   1.00
H2       0.50979    1.20292    0.37975   1.00
H2       0.63835    1.16178    0.12851   1.00
H2       0.48970    1.19838    0.33261   1.00
H2       0.64963    1.14283    0.17498   1.00
C4       1.00420    0.50230    0.73025   1.00
C4       1.00561    0.50166    0.77191   1.00
C3       0.98920    0.53473    0.70897   1.00
C3       0.99599    0.53484    0.79504   1.00
C3       1.01815    0.46950    0.70854   1.00
C3       1.01707    0.46675    0.79170   1.00
C2       1.00310    0.50445    0.64595   1.00
C2       1.00659    0.49981    0.85622   1.00
C3       0.98882    0.53592    0.66811   1.00
C3       0.99625    0.53397    0.83591   1.00
C3       1.01745    0.47197    0.66696   1.00
C3       1.01675    0.46700    0.83336   1.00
H1       0.97763    0.55854    0.72237   1.00
H1       0.98880    0.56102    0.78306   1.00
C5       1.03207    0.43536    0.72835   1.00
C5       1.02865    0.43291    0.76998   1.00
H1       0.97776    0.56022    0.65451   1.00
H1       0.98886    0.55884    0.85091   1.00
H1       1.02736    0.44934    0.65052   1.00
H1       1.02446    0.44266    0.84848   1.00
C6       1.05056    0.40262    0.70515   1.00
C6       1.03668    0.39498    0.79119   1.00
H2       1.07019    0.41507    0.68345   1.00
H2       1.01411    0.39037    0.81310   1.00
H2       1.07059    0.38556    0.72286   1.00
H2       1.03248    0.36986    0.77228   1.00
C6       1.01993    0.37451    0.68606   1.00
C6       1.07859    0.39304    0.80942   1.00
H2       0.99645    0.39165    0.67292   1.00
H2       1.08525    0.42071    0.82383   1.00
C6       1.03504    0.34505    0.65459   1.00
C6       1.08715    0.35939    0.83911   1.00
H2       1.00609    0.35790    0.70949   1.00
H2       1.09950    0.39080    0.78546   1.00
C6       1.04954    0.36632    0.61735   1.00
C6       1.06294    0.36401    0.87708   1.00
C6       1.06824    0.31896    0.67074   1.00
C6       1.07899    0.31875    0.82107   1.00
C6       1.00072    0.31807    0.64245   1.00
C6       1.13097    0.36106    0.85054   1.00
H2       1.02696    0.38549    0.60558   1.00
H2       1.06757    0.39269    0.89020   1.00
H2       1.07525    0.38402    0.62330   1.00
H2       1.03183    0.36072    0.87154   1.00
H2       1.05746    0.34551    0.59459   1.00
H2       1.07108    0.34203    0.89863   1.00
H2       1.07664    0.29671    0.64955   1.00
H2       1.08768    0.29545    0.84098   1.00
H2       1.09415    0.33622    0.67725   1.00
H2       1.04800    0.31502    0.81494   1.00
H2       1.05906    0.30427    0.69745   1.00
H2       1.09507    0.31506    0.79385   1.00
H2       0.97659    0.33505    0.63042   1.00
H2       1.13821    0.38910    0.86383   1.00
H2       1.00979    0.29708    0.62025   1.00
H2       1.13835    0.33822    0.87149   1.00
H2       0.98970    0.30162    0.66739   1.00
H2       1.14963    0.35717    0.82502   1.00
C4       1.00230    0.73025    0.50420   1.00
C4       1.00166    0.77191    0.50561   1.00
C3       1.03473    0.70897    0.48920   1.00
C3       1.03484    0.79504    0.49599   1.00
C3       0.96950    0.70854    0.51815   1.00
C3       0.96675    0.79170    0.51707   1.00
C2       1.00445    0.64595    0.50310   1.00
C2       0.99981    0.85622    0.50659   1.00
C3       1.03592    0.66811    0.48882   1.00
C3       1.03397    0.83591    0.49625   1.00
C3       0.97197    0.66696    0.51745   1.00
C3       0.96700    0.83336    0.51675   1.00
H1       1.05854    0.72237    0.47763   1.00
H1       1.06102    0.78306    0.48880   1.00
C5       0.93536    0.72835    0.53207   1.00
C5       0.93291    0.76998    0.52865   1.00
H1       1.06022    0.65451    0.47776   1.00
H1       1.05884    0.85091    0.48886   1.00
H1       0.94934    0.65052    0.52736   1.00
H1       0.94266    0.84848    0.52446   1.00
C6       0.90262    0.70515    0.55056   1.00
C6       0.89498    0.79119    0.53668   1.00
H2       0.91507    0.68345    0.57019   1.00
H2       0.89037    0.81310    0.51411   1.00
H2       0.88556    0.72286    0.57059   1.00
H2       0.86986    0.77228    0.53248   1.00
C6       0.87451    0.68606    0.51993   1.00
C6       0.89304    0.80942    0.57859   1.00
H2       0.89165    0.67292    0.49645   1.00
H2       0.92071    0.82383    0.58525   1.00
C6       0.84505    0.65459    0.53504   1.00
C6       0.85939    0.83911    0.58715   1.00
H2       0.85790    0.70949    0.50609   1.00
H2       0.89080    0.78546    0.59950   1.00
C6       0.86632    0.61735    0.54954   1.00
C6       0.86401    0.87708    0.56294   1.00
C6       0.81896    0.67074    0.56824   1.00
C6       0.81875    0.82107    0.57899   1.00
C6       0.81807    0.64245    0.50072   1.00
C6       0.86106    0.85054    0.63097   1.00
H2       0.88549    0.60558    0.52696   1.00
H2       0.89269    0.89020    0.56757   1.00
H2       0.88402    0.62330    0.57525   1.00
H2       0.86072    0.87154    0.53183   1.00
H2       0.84551    0.59459    0.55746   1.00
H2       0.84203    0.89863    0.57108   1.00
H2       0.79671    0.64955    0.57664   1.00
H2       0.79545    0.84098    0.58768   1.00
H2       0.83622    0.67725    0.59415   1.00
H2       0.81502    0.81494    0.54800   1.00
H2       0.80427    0.69745    0.55906   1.00
H2       0.81506    0.79385    0.59507   1.00
H2       0.83505    0.63042    0.47659   1.00
H2       0.88910    0.86383    0.63821   1.00
H2       0.79708    0.62025    0.50979   1.00
H2       0.83822    0.87149    0.63835   1.00
H2       0.80162    0.66739    0.48970   1.00
H2       0.85717    0.82502    0.64963   1.00
C4       0.76975    0.50420    0.49770   1.00
C4       0.72809    0.50561    0.49834   1.00
C3       0.79103    0.48920    0.46527   1.00
C3       0.70496    0.49599    0.46516   1.00
C3       0.79146    0.51815    0.53050   1.00
C3       0.70830    0.51707    0.53325   1.00
C2       0.85405    0.50310    0.49555   1.00
C2       0.64378    0.50659    0.50019   1.00
C3       0.83189    0.48882    0.46408   1.00
C3       0.66409    0.49625    0.46603   1.00
C3       0.83304    0.51745    0.52803   1.00
C3       0.66664    0.51675    0.53300   1.00
H1       0.77763    0.47763    0.44146   1.00
H1       0.71694    0.48880    0.43898   1.00
C5       0.77165    0.53207    0.56464   1.00
C5       0.73002    0.52865    0.56709   1.00
H1       0.84549    0.47776    0.43978   1.00
H1       0.64909    0.48886    0.44116   1.00
H1       0.84948    0.52736    0.55066   1.00
H1       0.65152    0.52446    0.55734   1.00
C6       0.79485    0.55056    0.59738   1.00
C6       0.70881    0.53668    0.60502   1.00
H2       0.81655    0.57019    0.58493   1.00
H2       0.68690    0.51411    0.60963   1.00
H2       0.77714    0.57059    0.61444   1.00
H2       0.72772    0.53248    0.63014   1.00
C6       0.81394    0.51993    0.62549   1.00
C6       0.69058    0.57859    0.60696   1.00
H2       0.82708    0.49645    0.60835   1.00
H2       0.67617    0.58525    0.57929   1.00
C6       0.84541    0.53504    0.65495   1.00
C6       0.66089    0.58715    0.64061   1.00
H2       0.79051    0.50609    0.64210   1.00
H2       0.71454    0.59950    0.60920   1.00
C6       0.88265    0.54954    0.63368   1.00
C6       0.62292    0.56294    0.63599   1.00
C6       0.82926    0.56824    0.68104   1.00
C6       0.67893    0.57899    0.68125   1.00
C6       0.85755    0.50072    0.68193   1.00
C6       0.64946    0.63097    0.63894   1.00
H2       0.89442    0.52696    0.61451   1.00
H2       0.60980    0.56757    0.60731   1.00
H2       0.87670    0.57525    0.61598   1.00
H2       0.62846    0.53183    0.63928   1.00
H2       0.90541    0.55746    0.65449   1.00
H2       0.60137    0.57108    0.65797   1.00
H2       0.85045    0.57664    0.70329   1.00
H2       0.65902    0.58768    0.70455   1.00
H2       0.82275    0.59415    0.66378   1.00
H2       0.68506    0.54800    0.68498   1.00
H2       0.80255    0.55906    0.69573   1.00
H2       0.70615    0.59507    0.68494   1.00
H2       0.86958    0.47659    0.66495   1.00
H2       0.63617    0.63821    0.61090   1.00
H2       0.87975    0.50979    0.70292   1.00
H2       0.62851    0.63835    0.66178   1.00
H2       0.83261    0.48970    0.69838   1.00
H2       0.67498    0.64963    0.64283   1.00
C4       1.23025    0.50420    0.50230   1.00
C4       1.27191    0.50561    0.50166   1.00
C3       1.20897    0.48920    0.53473   1.00
C3       1.29504    0.49599    0.53484   1.00
C3       1.20854    0.51815    0.46950   1.00
C3       1.29170    0.51707    0.46675   1.00
C2       1.14595    0.50310    0.50445   1.00
C2       1.35622    0.50659    0.49981   1.00
C3       1.16811    0.48882    0.53592   1.00
C3       1.33591    0.49625    0.53397   1.00
C3       1.16696    0.51745    0.47197   1.00
C3       1.33336    0.51675    0.46700   1.00
H1       1.22237    0.47763    0.55854   1.00
H1       1.28306    0.48880    0.56102   1.00
C5       1.22835    0.53207    0.43536   1.00
C5       1.26998    0.52865    0.43291   1.00
H1       1.15451    0.47776    0.56022   1.00
H1       1.35091    0.48886    0.55884   1.00
H1       1.15052    0.52736    0.44934   1.00
H1       1.34848    0.52446    0.44266   1.00
C6       1.20515    0.55056    0.40262   1.00
C6       1.29119    0.53668    0.39498   1.00
H2       1.18345    0.57019    0.41507   1.00
H2       1.31310    0.51411    0.39037   1.00
H2       1.22286    0.57059    0.38556   1.00
H2       1.27228    0.53248    0.36986   1.00
C6       1.18606    0.51993    0.37451   1.00
C6       1.30942    0.57859    0.39304   1.00
H2       1.17292    0.49645    0.39165   1.00
H2       1.32383    0.58525    0.42071   1.00
C6       1.15459    0.53504    0.34505   1.00
C6       1.33911    0.58715    0.35939   1.00
H2       1.20949    0.50609    0.35790   1.00
H2       1.28546    0.59950    0.39080   1.00
C6       1.11735    0.54954    0.36632   1.00
C6       1.37708    0.56294    0.36401   1.00
C6       1.17074    0.56824    0.31896   1.00
C6       1.32107    0.57899    0.31875   1.00
C6       1.14245    0.50072    0.31807   1.00
C6       1.35054    0.63097    0.36106   1.00
H2       1.10558    0.52696    0.38549   1.00
H2       1.39020    0.56757    0.39269   1.00
H2       1.12330    0.57525    0.38402   1.00
H2       1.37154    0.53183    0.36072   1.00
H2       1.09459    0.55746    0.34551   1.00
H2       1.39863    0.57108    0.34203   1.00
H2       1.14955    0.57664    0.29671   1.00
H2       1.34098    0.58768    0.29545   1.00
H2       1.17725    0.59415    0.33622   1.00
H2       1.31494    0.54800    0.31502   1.00
H2       1.19745    0.55906    0.30427   1.00
H2       1.29385    0.59507    0.31506   1.00
H2       1.13042    0.47659    0.33505   1.00
H2       1.36383    0.63821    0.38910   1.00
H2       1.12025    0.50979    0.29708   1.00
H2       1.37149    0.63835    0.33822   1.00
H2       1.16739    0.48970    0.30162   1.00
H2       1.32502    0.64963    0.35717   1.00
C4       0.99770    0.26975    0.50420   1.00
C4       0.99834    0.22809    0.50561   1.00
C3       0.96527    0.29103    0.48920   1.00
C3       0.96516    0.20496    0.49599   1.00
C3       1.03050    0.29146    0.51815   1.00
C3       1.03325    0.20830    0.51707   1.00
C2       0.99555    0.35405    0.50310   1.00
C2       1.00019    0.14378    0.50659   1.00
C3       0.96408    0.33189    0.48882   1.00
C3       0.96603    0.16409    0.49625   1.00
C3       1.02803    0.33304    0.51745   1.00
C3       1.03300    0.16664    0.51675   1.00
H1       0.94146    0.27763    0.47763   1.00
H1       0.93898    0.21694    0.48880   1.00
C5       1.06464    0.27165    0.53207   1.00
C5       1.06709    0.23002    0.52865   1.00
H1       0.93978    0.34549    0.47776   1.00
H1       0.94116    0.14909    0.48886   1.00
H1       1.05066    0.34948    0.52736   1.00
H1       1.05734    0.15152    0.52446   1.00
C6       1.09738    0.29485    0.55056   1.00
C6       1.10502    0.20881    0.53668   1.00
H2       1.08493    0.31655    0.57019   1.00
H2       1.10963    0.18690    0.51411   1.00
H2       1.11444    0.27714    0.57059   1.00
H2       1.13014    0.22772    0.53248   1.00
C6       1.12549    0.31394    0.51993   1.00
C6       1.10696    0.19058    0.57859   1.00
H2       1.10835    0.32708    0.49645   1.00
H2       1.07929    0.17617    0.58525   1.00
C6       1.15495    0.34541    0.53504   1.00
C6       1.14061    0.16089    0.58715   1.00
H2       1.14210    0.29051    0.50609   1.00
H2       1.10920    0.21454    0.59950   1.00
C6       1.13368    0.38265    0.54954   1.00
C6       1.13599    0.12292    0.56294   1.00
C6       1.18104    0.32926    0.56824   1.00
C6       1.18125    0.17893    0.57899   1.00
C6       1.18193    0.35755    0.50072   1.00
C6       1.13894    0.14946    0.63097   1.00
H2       1.11451    0.39442    0.52696   1.00
H2       1.10731    0.10980    0.56757   1.00
H2       1.11598    0.37670    0.57525   1.00
H2       1.13928    0.12846    0.53183   1.00
H2       1.15449    0.40541    0.55746   1.00
H2       1.15797    0.10137    0.57108   1.00
H2       1.20329    0.35045    0.57664   1.00
H2       1.20455    0.15902    0.58768   1.00
H2       1.16378    0.32275    0.59415   1.00
H2       1.18498    0.18506    0.54800   1.00
H2       1.19573    0.30255    0.55906   1.00
H2       1.18494    0.20615    0.59507   1.00
H2       1.16495    0.36958    0.47659   1.00
H2       1.11090    0.13617    0.63821   1.00
H2       1.20292    0.37975    0.50979   1.00
H2       1.16178    0.12851    0.63835   1.00
H2       1.19838    0.33261    0.48970   1.00
H2       1.14283    0.17498    0.64963   1.00
C4       1.00420    0.49770    0.26975   1.00
C4       1.00561    0.49834    0.22809   1.00
C3       0.98920    0.46527    0.29103   1.00
C3       0.99599    0.46516    0.20496   1.00
C3       1.01815    0.53050    0.29146   1.00
C3       1.01707    0.53325    0.20830   1.00
C2       1.00310    0.49555    0.35405   1.00
C2       1.00659    0.50019    0.14378   1.00
C3       0.98882    0.46408    0.33189   1.00
C3       0.99625    0.46603    0.16409   1.00
C3       1.01745    0.52803    0.33304   1.00
C3       1.01675    0.53300    0.16664   1.00
H1       0.97763    0.44146    0.27763   1.00
H1       0.98880    0.43898    0.21694   1.00
C5       1.03207    0.56464    0.27165   1.00
C5       1.02865    0.56709    0.23002   1.00
H1       0.97776    0.43978    0.34549   1.00
H1       0.98886    0.44116    0.14909   1.00
H1       1.02736    0.55066    0.34948   1.00
H1       1.02446    0.55734    0.15152   1.00
C6       1.05056    0.59738    0.29485   1.00
C6       1.03668    0.60502    0.20881   1.00
H2       1.07019    0.58493    0.31655   1.00
H2       1.01411    0.60963    0.18690   1.00
H2       1.07059    0.61444    0.27714   1.00
H2       1.03248    0.63014    0.22772   1.00
C6       1.01993    0.62549    0.31394   1.00
C6       1.07859    0.60696    0.19058   1.00
H2       0.99645    0.60835    0.32708   1.00
H2       1.08525    0.57929    0.17617   1.00
C6       1.03504    0.65495    0.34541   1.00
C6       1.08715    0.64061    0.16089   1.00
H2       1.00609    0.64210    0.29051   1.00
H2       1.09950    0.60920    0.21454   1.00
C6       1.04954    0.63368    0.38265   1.00
C6       1.06294    0.63599    0.12292   1.00
C6       1.06824    0.68104    0.32926   1.00
C6       1.07899    0.68125    0.17893   1.00
C6       1.00072    0.68193    0.35755   1.00
C6       1.13097    0.63894    0.14946   1.00
H2       1.02696    0.61451    0.39442   1.00
H2       1.06757    0.60731    0.10980   1.00
H2       1.07525    0.61598    0.37670   1.00
H2       1.03183    0.63928    0.12846   1.00
H2       1.05746    0.65449    0.40541   1.00
H2       1.07108    0.65797    0.10137   1.00
H2       1.07664    0.70329    0.35045   1.00
H2       1.08768    0.70455    0.15902   1.00
H2       1.09415    0.66378    0.32275   1.00
H2       1.04800    0.68498    0.18506   1.00
H2       1.05906    0.69573    0.30255   1.00
H2       1.09507    0.68494    0.20615   1.00
H2       0.97659    0.66495    0.36958   1.00
H2       1.13821    0.61090    0.13617   1.00
H2       1.00979    0.70292    0.37975   1.00
H2       1.13835    0.66178    0.12851   1.00
H2       0.98970    0.69838    0.33261   1.00
H2       1.14963    0.64283    0.17498   1.00
