data_IRMOF10_SG202_interpen_Ligand3lp_label_p.

_audit_creation_method             'generated by an auxiliary program of Tobunporous'

_symmetry_space_group_name_H-M     'P 1'
_symmetry_Int_Tables_number        1
_symmetry_cell_setting             triclinic

_cell_length_a                    34.2800
_cell_length_b                    34.2800
_cell_length_c                    34.2800
_cell_angle_alpha                 90.0000
_cell_angle_beta                  90.0000
_cell_angle_gamma                 90.0000

loop_
_atom_site_label
_atom_site_fract_x
_atom_site_fract_y
_atom_site_fract_z
_atom_site_occupancy
O1       0.75000    0.75000    0.75000   1.00
Zn1      0.71720    0.78280    0.78280   1.00
Zn1      0.78280    0.71720    0.78280   1.00
Zn1      0.78280    0.78280    0.71720   1.00
Zn1      0.71720    0.71720    0.71720   1.00
O2       0.72650    0.77350    0.83820   1.00
O2       0.72650    0.83820    0.77350   1.00
O2       0.66180    0.77350    0.77350   1.00
O2       0.77350    0.72650    0.83820   1.00
O2       0.83820    0.72650    0.77350   1.00
O2       0.77350    0.66180    0.77350   1.00
O2       0.77350    0.83820    0.72650   1.00
O2       0.83820    0.77350    0.72650   1.00
O2       0.77350    0.77350    0.66180   1.00
O2       0.66180    0.72650    0.72650   1.00
O2       0.72650    0.66180    0.72650   1.00
O2       0.72650    0.72650    0.66180   1.00
C1       0.75000    0.75000    0.85520   1.00
C1       0.75000    0.85520    0.75000   1.00
C1       0.64480    0.75000    0.75000   1.00
C1       0.85520    0.75000    0.75000   1.00
C1       0.75000    0.64480    0.75000   1.00
C1       0.75000    0.75000    0.64480   1.00
O1       0.25000    0.25000    0.75000   1.00
Zn1      0.21720    0.28280    0.78280   1.00
Zn1      0.28280    0.21720    0.78280   1.00
Zn1      0.28280    0.28280    0.71720   1.00
Zn1      0.21720    0.21720    0.71720   1.00
O2       0.22650    0.27350    0.83820   1.00
O2       0.22650    0.33820    0.77350   1.00
O2       0.16180    0.27350    0.77350   1.00
O2       0.27350    0.22650    0.83820   1.00
O2       0.33820    0.22650    0.77350   1.00
O2       0.27350    0.16180    0.77350   1.00
O2       0.27350    0.33820    0.72650   1.00
O2       0.33820    0.27350    0.72650   1.00
O2       0.27350    0.27350    0.66180   1.00
O2       0.16180    0.22650    0.72650   1.00
O2       0.22650    0.16180    0.72650   1.00
O2       0.22650    0.22650    0.66180   1.00
C1       0.25000    0.25000    0.85520   1.00
C1       0.25000    0.35520    0.75000   1.00
C1       0.14480    0.25000    0.75000   1.00
C1       0.35520    0.25000    0.75000   1.00
C1       0.25000    0.14480    0.75000   1.00
C1       0.25000    0.25000    0.64480   1.00
O1       0.25000    0.75000    0.25000   1.00
Zn1      0.21720    0.78280    0.28280   1.00
Zn1      0.28280    0.71720    0.28280   1.00
Zn1      0.28280    0.78280    0.21720   1.00
Zn1      0.21720    0.71720    0.21720   1.00
O2       0.22650    0.77350    0.33820   1.00
O2       0.22650    0.83820    0.27350   1.00
O2       0.16180    0.77350    0.27350   1.00
O2       0.27350    0.72650    0.33820   1.00
O2       0.33820    0.72650    0.27350   1.00
O2       0.27350    0.66180    0.27350   1.00
O2       0.27350    0.83820    0.22650   1.00
O2       0.33820    0.77350    0.22650   1.00
O2       0.27350    0.77350    0.16180   1.00
O2       0.16180    0.72650    0.22650   1.00
O2       0.22650    0.66180    0.22650   1.00
O2       0.22650    0.72650    0.16180   1.00
C1       0.25000    0.75000    0.35520   1.00
C1       0.25000    0.85520    0.25000   1.00
C1       0.14480    0.75000    0.25000   1.00
C1       0.35520    0.75000    0.25000   1.00
C1       0.25000    0.64480    0.25000   1.00
C1       0.25000    0.75000    0.14480   1.00
O1       0.75000    0.25000    0.25000   1.00
Zn1      0.71720    0.28280    0.28280   1.00
Zn1      0.78280    0.21720    0.28280   1.00
Zn1      0.78280    0.28280    0.21720   1.00
Zn1      0.71720    0.21720    0.21720   1.00
O2       0.72650    0.27350    0.33820   1.00
O2       0.72650    0.33820    0.27350   1.00
O2       0.66180    0.27350    0.27350   1.00
O2       0.77350    0.22650    0.33820   1.00
O2       0.83820    0.22650    0.27350   1.00
O2       0.77350    0.16180    0.27350   1.00
O2       0.77350    0.33820    0.22650   1.00
O2       0.83820    0.27350    0.22650   1.00
O2       0.77350    0.27350    0.16180   1.00
O2       0.66180    0.22650    0.22650   1.00
O2       0.72650    0.16180    0.22650   1.00
O2       0.72650    0.22650    0.16180   1.00
C1       0.75000    0.25000    0.35520   1.00
C1       0.75000    0.35520    0.25000   1.00
C1       0.64480    0.25000    0.25000   1.00
C1       0.85520    0.25000    0.25000   1.00
C1       0.75000    0.14480    0.25000   1.00
C1       0.75000    0.25000    0.14480   1.00
O1       0.25000    0.25000    0.25000   1.00
Zn1      0.28280    0.21720    0.21720   1.00
Zn1      0.21720    0.28280    0.21720   1.00
Zn1      0.21720    0.21720    0.28280   1.00
Zn1      0.28280    0.28280    0.28280   1.00
O2       0.27350    0.22650    0.16180   1.00
O2       0.27350    0.16180    0.22650   1.00
O2       0.33820    0.22650    0.22650   1.00
O2       0.22650    0.27350    0.16180   1.00
O2       0.16180    0.27350    0.22650   1.00
O2       0.22650    0.33820    0.22650   1.00
O2       0.22650    0.16180    0.27350   1.00
O2       0.16180    0.22650    0.27350   1.00
O2       0.22650    0.22650    0.33820   1.00
O2       0.33820    0.27350    0.27350   1.00
O2       0.27350    0.33820    0.27350   1.00
O2       0.27350    0.27350    0.33820   1.00
C1       0.25000    0.25000    0.14480   1.00
C1       0.25000    0.14480    0.25000   1.00
C1       0.35520    0.25000    0.25000   1.00
C1       0.14480    0.25000    0.25000   1.00
C1       0.25000    0.35520    0.25000   1.00
C1       0.25000    0.25000    0.35520   1.00
O1       0.75000    0.75000    0.25000   1.00
Zn1      0.78280    0.71720    0.21720   1.00
Zn1      0.71720    0.78280    0.21720   1.00
Zn1      0.71720    0.71720    0.28280   1.00
Zn1      0.78280    0.78280    0.28280   1.00
O2       0.77350    0.72650    0.16180   1.00
O2       0.77350    0.66180    0.22650   1.00
O2       0.83820    0.72650    0.22650   1.00
O2       0.72650    0.77350    0.16180   1.00
O2       0.66180    0.77350    0.22650   1.00
O2       0.72650    0.83820    0.22650   1.00
O2       0.72650    0.66180    0.27350   1.00
O2       0.66180    0.72650    0.27350   1.00
O2       0.72650    0.72650    0.33820   1.00
O2       0.83820    0.77350    0.27350   1.00
O2       0.77350    0.83820    0.27350   1.00
O2       0.77350    0.77350    0.33820   1.00
C1       0.75000    0.75000    0.14480   1.00
C1       0.75000    0.64480    0.25000   1.00
C1       0.85520    0.75000    0.25000   1.00
C1       0.64480    0.75000    0.25000   1.00
C1       0.75000    0.85520    0.25000   1.00
C1       0.75000    0.75000    0.35520   1.00
O1       0.75000    0.25000    0.75000   1.00
Zn1      0.78280    0.21720    0.71720   1.00
Zn1      0.71720    0.28280    0.71720   1.00
Zn1      0.71720    0.21720    0.78280   1.00
Zn1      0.78280    0.28280    0.78280   1.00
O2       0.77350    0.22650    0.66180   1.00
O2       0.77350    0.16180    0.72650   1.00
O2       0.83820    0.22650    0.72650   1.00
O2       0.72650    0.27350    0.66180   1.00
O2       0.66180    0.27350    0.72650   1.00
O2       0.72650    0.33820    0.72650   1.00
O2       0.72650    0.16180    0.77350   1.00
O2       0.66180    0.22650    0.77350   1.00
O2       0.72650    0.22650    0.83820   1.00
O2       0.83820    0.27350    0.77350   1.00
O2       0.77350    0.33820    0.77350   1.00
O2       0.77350    0.27350    0.83820   1.00
C1       0.75000    0.25000    0.64480   1.00
C1       0.75000    0.14480    0.75000   1.00
C1       0.85520    0.25000    0.75000   1.00
C1       0.64480    0.25000    0.75000   1.00
C1       0.75000    0.35520    0.75000   1.00
C1       0.75000    0.25000    0.85520   1.00
O1       0.25000    0.75000    0.75000   1.00
Zn1      0.28280    0.71720    0.71720   1.00
Zn1      0.21720    0.78280    0.71720   1.00
Zn1      0.21720    0.71720    0.78280   1.00
Zn1      0.28280    0.78280    0.78280   1.00
O2       0.27350    0.72650    0.66180   1.00
O2       0.27350    0.66180    0.72650   1.00
O2       0.33820    0.72650    0.72650   1.00
O2       0.22650    0.77350    0.66180   1.00
O2       0.16180    0.77350    0.72650   1.00
O2       0.22650    0.83820    0.72650   1.00
O2       0.22650    0.66180    0.77350   1.00
O2       0.16180    0.72650    0.77350   1.00
O2       0.22650    0.72650    0.83820   1.00
O2       0.33820    0.77350    0.77350   1.00
O2       0.27350    0.83820    0.77350   1.00
O2       0.27350    0.77350    0.83820   1.00
C1       0.25000    0.75000    0.64480   1.00
C1       0.25000    0.64480    0.75000   1.00
C1       0.35520    0.75000    0.75000   1.00
C1       0.14480    0.75000    0.75000   1.00
C1       0.25000    0.85520    0.75000   1.00
C1       0.25000    0.75000    0.85520   1.00
O1       1.00000    1.00000    1.00000   1.00
Zn1      0.96720    1.03280    1.03280   1.00
Zn1      1.03280    0.96720    1.03280   1.00
Zn1      1.03280    1.03280    0.96720   1.00
Zn1      0.96720    0.96720    0.96720   1.00
O2       0.97650    1.02350    1.08820   1.00
O2       0.97650    1.08820    1.02350   1.00
O2       0.91180    1.02350    1.02350   1.00
O2       1.02350    0.97650    1.08820   1.00
O2       1.08820    0.97650    1.02350   1.00
O2       1.02350    0.91180    1.02350   1.00
O2       1.02350    1.08820    0.97650   1.00
O2       1.08820    1.02350    0.97650   1.00
O2       1.02350    1.02350    0.91180   1.00
O2       0.91180    0.97650    0.97650   1.00
O2       0.97650    0.91180    0.97650   1.00
O2       0.97650    0.97650    0.91180   1.00
C1       1.00000    1.00000    1.10520   1.00
C1       1.00000    1.10520    1.00000   1.00
C1       0.89480    1.00000    1.00000   1.00
C1       1.10520    1.00000    1.00000   1.00
C1       1.00000    0.89480    1.00000   1.00
C1       1.00000    1.00000    0.89480   1.00
O1       0.50000    0.50000    1.00000   1.00
Zn1      0.46720    0.53280    1.03280   1.00
Zn1      0.53280    0.46720    1.03280   1.00
Zn1      0.53280    0.53280    0.96720   1.00
Zn1      0.46720    0.46720    0.96720   1.00
O2       0.47650    0.52350    1.08820   1.00
O2       0.47650    0.58820    1.02350   1.00
O2       0.41180    0.52350    1.02350   1.00
O2       0.52350    0.47650    1.08820   1.00
O2       0.58820    0.47650    1.02350   1.00
O2       0.52350    0.41180    1.02350   1.00
O2       0.52350    0.58820    0.97650   1.00
O2       0.58820    0.52350    0.97650   1.00
O2       0.52350    0.52350    0.91180   1.00
O2       0.41180    0.47650    0.97650   1.00
O2       0.47650    0.41180    0.97650   1.00
O2       0.47650    0.47650    0.91180   1.00
C1       0.50000    0.50000    1.10520   1.00
C1       0.50000    0.60520    1.00000   1.00
C1       0.39480    0.50000    1.00000   1.00
C1       0.60520    0.50000    1.00000   1.00
C1       0.50000    0.39480    1.00000   1.00
C1       0.50000    0.50000    0.89480   1.00
O1       0.50000    1.00000    0.50000   1.00
Zn1      0.46720    1.03280    0.53280   1.00
Zn1      0.53280    0.96720    0.53280   1.00
Zn1      0.53280    1.03280    0.46720   1.00
Zn1      0.46720    0.96720    0.46720   1.00
O2       0.47650    1.02350    0.58820   1.00
O2       0.47650    1.08820    0.52350   1.00
O2       0.41180    1.02350    0.52350   1.00
O2       0.52350    0.97650    0.58820   1.00
O2       0.58820    0.97650    0.52350   1.00
O2       0.52350    0.91180    0.52350   1.00
O2       0.52350    1.08820    0.47650   1.00
O2       0.58820    1.02350    0.47650   1.00
O2       0.52350    1.02350    0.41180   1.00
O2       0.41180    0.97650    0.47650   1.00
O2       0.47650    0.91180    0.47650   1.00
O2       0.47650    0.97650    0.41180   1.00
C1       0.50000    1.00000    0.60520   1.00
C1       0.50000    1.10520    0.50000   1.00
C1       0.39480    1.00000    0.50000   1.00
C1       0.60520    1.00000    0.50000   1.00
C1       0.50000    0.89480    0.50000   1.00
C1       0.50000    1.00000    0.39480   1.00
O1       1.00000    0.50000    0.50000   1.00
Zn1      0.96720    0.53280    0.53280   1.00
Zn1      1.03280    0.46720    0.53280   1.00
Zn1      1.03280    0.53280    0.46720   1.00
Zn1      0.96720    0.46720    0.46720   1.00
O2       0.97650    0.52350    0.58820   1.00
O2       0.97650    0.58820    0.52350   1.00
O2       0.91180    0.52350    0.52350   1.00
O2       1.02350    0.47650    0.58820   1.00
O2       1.08820    0.47650    0.52350   1.00
O2       1.02350    0.41180    0.52350   1.00
O2       1.02350    0.58820    0.47650   1.00
O2       1.08820    0.52350    0.47650   1.00
O2       1.02350    0.52350    0.41180   1.00
O2       0.91180    0.47650    0.47650   1.00
O2       0.97650    0.41180    0.47650   1.00
O2       0.97650    0.47650    0.41180   1.00
C1       1.00000    0.50000    0.60520   1.00
C1       1.00000    0.60520    0.50000   1.00
C1       0.89480    0.50000    0.50000   1.00
C1       1.10520    0.50000    0.50000   1.00
C1       1.00000    0.39480    0.50000   1.00
C1       1.00000    0.50000    0.39480   1.00
O1       0.50000    0.50000    0.50000   1.00
Zn1      0.53280    0.46720    0.46720   1.00
Zn1      0.46720    0.53280    0.46720   1.00
Zn1      0.46720    0.46720    0.53280   1.00
Zn1      0.53280    0.53280    0.53280   1.00
O2       0.52350    0.47650    0.41180   1.00
O2       0.52350    0.41180    0.47650   1.00
O2       0.58820    0.47650    0.47650   1.00
O2       0.47650    0.52350    0.41180   1.00
O2       0.41180    0.52350    0.47650   1.00
O2       0.47650    0.58820    0.47650   1.00
O2       0.47650    0.41180    0.52350   1.00
O2       0.41180    0.47650    0.52350   1.00
O2       0.47650    0.47650    0.58820   1.00
O2       0.58820    0.52350    0.52350   1.00
O2       0.52350    0.58820    0.52350   1.00
O2       0.52350    0.52350    0.58820   1.00
C1       0.50000    0.50000    0.39480   1.00
C1       0.50000    0.39480    0.50000   1.00
C1       0.60520    0.50000    0.50000   1.00
C1       0.39480    0.50000    0.50000   1.00
C1       0.50000    0.60520    0.50000   1.00
C1       0.50000    0.50000    0.60520   1.00
O1       1.00000    1.00000    0.50000   1.00
Zn1      1.03280    0.96720    0.46720   1.00
Zn1      0.96720    1.03280    0.46720   1.00
Zn1      0.96720    0.96720    0.53280   1.00
Zn1      1.03280    1.03280    0.53280   1.00
O2       1.02350    0.97650    0.41180   1.00
O2       1.02350    0.91180    0.47650   1.00
O2       1.08820    0.97650    0.47650   1.00
O2       0.97650    1.02350    0.41180   1.00
O2       0.91180    1.02350    0.47650   1.00
O2       0.97650    1.08820    0.47650   1.00
O2       0.97650    0.91180    0.52350   1.00
O2       0.91180    0.97650    0.52350   1.00
O2       0.97650    0.97650    0.58820   1.00
O2       1.08820    1.02350    0.52350   1.00
O2       1.02350    1.08820    0.52350   1.00
O2       1.02350    1.02350    0.58820   1.00
C1       1.00000    1.00000    0.39480   1.00
C1       1.00000    0.89480    0.50000   1.00
C1       1.10520    1.00000    0.50000   1.00
C1       0.89480    1.00000    0.50000   1.00
C1       1.00000    1.10520    0.50000   1.00
C1       1.00000    1.00000    0.60520   1.00
O1       1.00000    0.50000    1.00000   1.00
Zn1      1.03280    0.46720    0.96720   1.00
Zn1      0.96720    0.53280    0.96720   1.00
Zn1      0.96720    0.46720    1.03280   1.00
Zn1      1.03280    0.53280    1.03280   1.00
O2       1.02350    0.47650    0.91180   1.00
O2       1.02350    0.41180    0.97650   1.00
O2       1.08820    0.47650    0.97650   1.00
O2       0.97650    0.52350    0.91180   1.00
O2       0.91180    0.52350    0.97650   1.00
O2       0.97650    0.58820    0.97650   1.00
O2       0.97650    0.41180    1.02350   1.00
O2       0.91180    0.47650    1.02350   1.00
O2       0.97650    0.47650    1.08820   1.00
O2       1.08820    0.52350    1.02350   1.00
O2       1.02350    0.58820    1.02350   1.00
O2       1.02350    0.52350    1.08820   1.00
C1       1.00000    0.50000    0.89480   1.00
C1       1.00000    0.39480    1.00000   1.00
C1       1.10520    0.50000    1.00000   1.00
C1       0.89480    0.50000    1.00000   1.00
C1       1.00000    0.60520    1.00000   1.00
C1       1.00000    0.50000    1.10520   1.00
O1       0.50000    1.00000    1.00000   1.00
Zn1      0.53280    0.96720    0.96720   1.00
Zn1      0.46720    1.03280    0.96720   1.00
Zn1      0.46720    0.96720    1.03280   1.00
Zn1      0.53280    1.03280    1.03280   1.00
O2       0.52350    0.97650    0.91180   1.00
O2       0.52350    0.91180    0.97650   1.00
O2       0.58820    0.97650    0.97650   1.00
O2       0.47650    1.02350    0.91180   1.00
O2       0.41180    1.02350    0.97650   1.00
O2       0.47650    1.08820    0.97650   1.00
O2       0.47650    0.91180    1.02350   1.00
O2       0.41180    0.97650    1.02350   1.00
O2       0.47650    0.97650    1.08820   1.00
O2       0.58820    1.02350    1.02350   1.00
O2       0.52350    1.08820    1.02350   1.00
O2       0.52350    1.02350    1.08820   1.00
C1       0.50000    1.00000    0.89480   1.00
C1       0.50000    0.89480    1.00000   1.00
C1       0.60520    1.00000    1.00000   1.00
C1       0.39480    1.00000    1.00000   1.00
C1       0.50000    1.10520    1.00000   1.00
C1       0.50000    1.00000    1.10520   1.00
C4       0.74815    0.74758    1.02084   1.00
C4       0.74804    0.74830    0.97912   1.00
C3       0.71569    0.73563    1.04364   1.00
C3       0.71441    0.74058    0.95616   1.00
C3       0.78228    0.76001    1.04123   1.00
C3       0.78336    0.75710    0.95886   1.00
C2       0.75003    0.74880    1.10512   1.00
C2       0.74997    0.75120    0.89488   1.00
C3       0.71649    0.73642    1.08462   1.00
C3       0.71542    0.74162    0.91519   1.00
C3       0.78276    0.75990    1.08258   1.00
C3       0.78334    0.75964    0.91762   1.00
H1       0.69055    0.72587    1.03115   1.00
H1       0.68815    0.73421    0.96852   1.00
C5       0.81577    0.77231    1.02020   1.00
C5       0.81841    0.76366    0.97980   1.00
H1       0.69203    0.72771    1.09955   1.00
H1       0.69028    0.73545    0.90010   1.00
H1       0.80782    0.76786    1.09680   1.00
H1       0.80822    0.76841    0.90368   1.00
O3       0.84604    0.79030    1.03961   1.00
O3       0.85409    0.76451    0.96099   1.00
Si1      0.84742    0.83785    1.04247   1.00
Si1      0.87673    0.72343    0.95279   1.00
C6       0.88692    0.84110    1.07538   1.00
C6       0.86035    0.85569    0.99598   1.00
C6       0.80460    0.85831    1.06253   1.00
C6       0.85361    0.67953    0.96693   1.00
C6       0.88324    0.72368    0.90198   1.00
C6       0.92307    0.72696    0.97477   1.00
C6       0.88477    0.81368    1.11194   1.00
H2       0.91114    0.82999    1.05791   1.00
C6       0.90097    0.88164    1.09147   1.00
H2       0.87609    0.83095    0.98358   1.00
C6       0.82697    0.86526    0.96634   1.00
C6       0.88911    0.89107    0.99336   1.00
H2       0.79992    0.84012    1.08831   1.00
C6       0.80709    0.90137    1.07772   1.00
C6       0.76556    0.85715    1.03849   1.00
C6       0.84167    0.67469    1.01071   1.00
C6       0.81862    0.66352    0.94225   1.00
H2       0.87656    0.65798    0.96212   1.00
H2       0.85383    0.71957    0.89051   1.00
C6       0.89798    0.76293    0.88378   1.00
C6       0.90889    0.69053    0.88393   1.00
H2       0.94035    0.74353    0.95375   1.00
C6       0.92532    0.75095    1.01336   1.00
C6       0.94624    0.68832    0.98244   1.00
H2       0.88119    0.78316    1.10346   1.00
H2       0.86037    0.82158    1.13090   1.00
H2       0.91157    0.81528    1.12917   1.00
H2       0.93254    0.88120    1.09608   1.00
H2       0.89456    0.90566    1.07178   1.00
H2       0.88782    0.88867    1.11964   1.00
H2       0.83857    0.86787    0.93672   1.00
H2       0.80498    0.84237    0.96532   1.00
H2       0.81271    0.89282    0.97352   1.00
H2       0.91640    0.88504    1.00862   1.00
H2       0.89708    0.89733    0.96308   1.00
H2       0.87601    0.91747    1.00550   1.00
H2       0.81824    0.92090    1.05514   1.00
H2       0.77865    0.91247    1.08708   1.00
H2       0.82566    0.90352    1.10332   1.00
H2       0.76272    0.88220    1.01902   1.00
H2       0.76245    0.83122    1.02068   1.00
H2       0.74051    0.85777    1.05828   1.00
H2       0.81370    0.68846    1.01688   1.00
H2       0.83867    0.64379    1.01809   1.00
H2       0.86333    0.68688    1.03048   1.00
H2       0.81119    0.63380    0.95125   1.00
H2       0.79238    0.68103    0.94574   1.00
H2       0.82553    0.66195    0.91122   1.00
H2       0.89475    0.76239    0.85202   1.00
H2       0.88099    0.78777    0.89435   1.00
H2       0.92865    0.76836    0.89035   1.00
H2       0.89988    0.66176    0.89416   1.00
H2       0.90610    0.69038    0.85212   1.00
H2       0.93973    0.69459    0.89085   1.00
H2       0.90780    0.73803    1.03656   1.00
H2       0.95532    0.75364    1.02381   1.00
H2       0.91462    0.78033    1.00834   1.00
H2       0.97649    0.69464    0.99044   1.00
H2       0.93329    0.67148    1.00622   1.00
H2       0.94728    0.66985    0.95657   1.00
C4       0.74758    1.02084    0.74815   1.00
C4       0.74830    0.97912    0.74804   1.00
C3       0.73563    1.04364    0.71569   1.00
C3       0.74058    0.95616    0.71441   1.00
C3       0.76001    1.04123    0.78228   1.00
C3       0.75710    0.95886    0.78336   1.00
C2       0.74880    1.10512    0.75003   1.00
C2       0.75120    0.89488    0.74997   1.00
C3       0.73642    1.08462    0.71649   1.00
C3       0.74162    0.91519    0.71542   1.00
C3       0.75990    1.08258    0.78276   1.00
C3       0.75964    0.91762    0.78334   1.00
H1       0.72587    1.03115    0.69055   1.00
H1       0.73421    0.96852    0.68815   1.00
C5       0.77231    1.02020    0.81577   1.00
C5       0.76366    0.97980    0.81841   1.00
H1       0.72771    1.09955    0.69203   1.00
H1       0.73545    0.90010    0.69028   1.00
H1       0.76786    1.09680    0.80782   1.00
H1       0.76841    0.90368    0.80822   1.00
O3       0.79030    1.03961    0.84604   1.00
O3       0.76451    0.96099    0.85409   1.00
Si1      0.83785    1.04247    0.84742   1.00
Si1      0.72343    0.95279    0.87673   1.00
C6       0.84110    1.07538    0.88692   1.00
C6       0.85569    0.99598    0.86035   1.00
C6       0.85831    1.06253    0.80460   1.00
C6       0.67953    0.96693    0.85361   1.00
C6       0.72368    0.90198    0.88324   1.00
C6       0.72696    0.97477    0.92307   1.00
C6       0.81368    1.11194    0.88477   1.00
H2       0.82999    1.05791    0.91114   1.00
C6       0.88164    1.09147    0.90097   1.00
H2       0.83095    0.98358    0.87609   1.00
C6       0.86526    0.96634    0.82697   1.00
C6       0.89107    0.99336    0.88911   1.00
H2       0.84012    1.08831    0.79992   1.00
C6       0.90137    1.07772    0.80709   1.00
C6       0.85715    1.03849    0.76556   1.00
C6       0.67469    1.01071    0.84167   1.00
C6       0.66352    0.94225    0.81862   1.00
H2       0.65798    0.96212    0.87656   1.00
H2       0.71957    0.89051    0.85383   1.00
C6       0.76293    0.88378    0.89798   1.00
C6       0.69053    0.88393    0.90889   1.00
H2       0.74353    0.95375    0.94035   1.00
C6       0.75095    1.01336    0.92532   1.00
C6       0.68832    0.98244    0.94624   1.00
H2       0.78316    1.10346    0.88119   1.00
H2       0.82158    1.13090    0.86037   1.00
H2       0.81528    1.12917    0.91157   1.00
H2       0.88120    1.09608    0.93254   1.00
H2       0.90566    1.07178    0.89456   1.00
H2       0.88867    1.11964    0.88782   1.00
H2       0.86787    0.93672    0.83857   1.00
H2       0.84237    0.96532    0.80498   1.00
H2       0.89282    0.97352    0.81271   1.00
H2       0.88504    1.00862    0.91640   1.00
H2       0.89733    0.96308    0.89708   1.00
H2       0.91747    1.00550    0.87601   1.00
H2       0.92090    1.05514    0.81824   1.00
H2       0.91247    1.08708    0.77865   1.00
H2       0.90352    1.10332    0.82566   1.00
H2       0.88220    1.01902    0.76272   1.00
H2       0.83122    1.02068    0.76245   1.00
H2       0.85777    1.05828    0.74051   1.00
H2       0.68846    1.01688    0.81370   1.00
H2       0.64379    1.01809    0.83867   1.00
H2       0.68688    1.03048    0.86333   1.00
H2       0.63380    0.95125    0.81119   1.00
H2       0.68103    0.94574    0.79238   1.00
H2       0.66195    0.91122    0.82553   1.00
H2       0.76239    0.85202    0.89475   1.00
H2       0.78777    0.89435    0.88099   1.00
H2       0.76836    0.89035    0.92865   1.00
H2       0.66176    0.89416    0.89988   1.00
H2       0.69038    0.85212    0.90610   1.00
H2       0.69459    0.89085    0.93973   1.00
H2       0.73803    1.03656    0.90780   1.00
H2       0.75364    1.02381    0.95532   1.00
H2       0.78033    1.00834    0.91462   1.00
H2       0.69464    0.99044    0.97649   1.00
H2       0.67148    1.00622    0.93329   1.00
H2       0.66985    0.95657    0.94728   1.00
C4       0.47916    0.74815    0.75242   1.00
C4       0.52088    0.74804    0.75170   1.00
C3       0.45636    0.71569    0.76437   1.00
C3       0.54384    0.71441    0.75942   1.00
C3       0.45877    0.78228    0.73999   1.00
C3       0.54114    0.78336    0.74290   1.00
C2       0.39488    0.75003    0.75120   1.00
C2       0.60512    0.74997    0.74880   1.00
C3       0.41538    0.71649    0.76358   1.00
C3       0.58481    0.71542    0.75838   1.00
C3       0.41742    0.78276    0.74010   1.00
C3       0.58238    0.78334    0.74036   1.00
H1       0.46885    0.69055    0.77413   1.00
H1       0.53148    0.68815    0.76579   1.00
C5       0.47980    0.81577    0.72769   1.00
C5       0.52020    0.81841    0.73634   1.00
H1       0.40045    0.69203    0.77229   1.00
H1       0.59990    0.69028    0.76455   1.00
H1       0.40320    0.80782    0.73214   1.00
H1       0.59632    0.80822    0.73159   1.00
O3       0.46039    0.84604    0.70970   1.00
O3       0.53901    0.85409    0.73549   1.00
Si1      0.45753    0.84742    0.66215   1.00
Si1      0.54721    0.87673    0.77657   1.00
C6       0.42462    0.88692    0.65890   1.00
C6       0.50402    0.86035    0.64431   1.00
C6       0.43747    0.80460    0.64169   1.00
C6       0.53307    0.85361    0.82047   1.00
C6       0.59802    0.88324    0.77632   1.00
C6       0.52523    0.92307    0.77304   1.00
C6       0.38806    0.88477    0.68632   1.00
H2       0.44209    0.91114    0.67001   1.00
C6       0.40853    0.90097    0.61836   1.00
H2       0.51642    0.87609    0.66905   1.00
C6       0.53366    0.82697    0.63474   1.00
C6       0.50664    0.88911    0.60893   1.00
H2       0.41169    0.79992    0.65988   1.00
C6       0.42228    0.80709    0.59863   1.00
C6       0.46151    0.76556    0.64285   1.00
C6       0.48929    0.84167    0.82531   1.00
C6       0.55775    0.81862    0.83648   1.00
H2       0.53788    0.87656    0.84202   1.00
H2       0.60949    0.85383    0.78043   1.00
C6       0.61622    0.89798    0.73707   1.00
C6       0.61607    0.90889    0.80947   1.00
H2       0.54625    0.94035    0.75647   1.00
C6       0.48664    0.92532    0.74905   1.00
C6       0.51756    0.94624    0.81168   1.00
H2       0.39654    0.88119    0.71684   1.00
H2       0.36910    0.86037    0.67842   1.00
H2       0.37083    0.91157    0.68472   1.00
H2       0.40392    0.93254    0.61880   1.00
H2       0.42822    0.89456    0.59434   1.00
H2       0.38036    0.88782    0.61133   1.00
H2       0.56328    0.83857    0.63213   1.00
H2       0.53468    0.80498    0.65763   1.00
H2       0.52648    0.81271    0.60718   1.00
H2       0.49138    0.91640    0.61496   1.00
H2       0.53692    0.89708    0.60267   1.00
H2       0.49450    0.87601    0.58253   1.00
H2       0.44486    0.81824    0.57910   1.00
H2       0.41292    0.77865    0.58753   1.00
H2       0.39668    0.82566    0.59648   1.00
H2       0.48098    0.76272    0.61780   1.00
H2       0.47932    0.76245    0.66878   1.00
H2       0.44172    0.74051    0.64223   1.00
H2       0.48312    0.81370    0.81154   1.00
H2       0.48191    0.83867    0.85621   1.00
H2       0.46952    0.86333    0.81312   1.00
H2       0.54875    0.81119    0.86620   1.00
H2       0.55426    0.79238    0.81897   1.00
H2       0.58878    0.82553    0.83805   1.00
H2       0.64798    0.89475    0.73761   1.00
H2       0.60565    0.88099    0.71223   1.00
H2       0.60965    0.92865    0.73164   1.00
H2       0.60584    0.89988    0.83824   1.00
H2       0.64788    0.90610    0.80962   1.00
H2       0.60915    0.93973    0.80541   1.00
H2       0.46344    0.90780    0.76197   1.00
H2       0.47619    0.95532    0.74636   1.00
H2       0.49166    0.91462    0.71967   1.00
H2       0.50956    0.97649    0.80536   1.00
H2       0.49378    0.93329    0.82852   1.00
H2       0.54343    0.94728    0.83015   1.00
C4       1.02084    0.74815    0.74758   1.00
C4       0.97912    0.74804    0.74830   1.00
C3       1.04364    0.71569    0.73563   1.00
C3       0.95616    0.71441    0.74058   1.00
C3       1.04123    0.78228    0.76001   1.00
C3       0.95886    0.78336    0.75710   1.00
C2       1.10512    0.75003    0.74880   1.00
C2       0.89488    0.74997    0.75120   1.00
C3       1.08462    0.71649    0.73642   1.00
C3       0.91519    0.71542    0.74162   1.00
C3       1.08258    0.78276    0.75990   1.00
C3       0.91762    0.78334    0.75964   1.00
H1       1.03115    0.69055    0.72587   1.00
H1       0.96852    0.68815    0.73421   1.00
C5       1.02020    0.81577    0.77231   1.00
C5       0.97980    0.81841    0.76366   1.00
H1       1.09955    0.69203    0.72771   1.00
H1       0.90010    0.69028    0.73545   1.00
H1       1.09680    0.80782    0.76786   1.00
H1       0.90368    0.80822    0.76841   1.00
O3       1.03961    0.84604    0.79030   1.00
O3       0.96099    0.85409    0.76451   1.00
Si1      1.04247    0.84742    0.83785   1.00
Si1      0.95279    0.87673    0.72343   1.00
C6       1.07538    0.88692    0.84110   1.00
C6       0.99598    0.86035    0.85569   1.00
C6       1.06253    0.80460    0.85831   1.00
C6       0.96693    0.85361    0.67953   1.00
C6       0.90198    0.88324    0.72368   1.00
C6       0.97477    0.92307    0.72696   1.00
C6       1.11194    0.88477    0.81368   1.00
H2       1.05791    0.91114    0.82999   1.00
C6       1.09147    0.90097    0.88164   1.00
H2       0.98358    0.87609    0.83095   1.00
C6       0.96634    0.82697    0.86526   1.00
C6       0.99336    0.88911    0.89107   1.00
H2       1.08831    0.79992    0.84012   1.00
C6       1.07772    0.80709    0.90137   1.00
C6       1.03849    0.76556    0.85715   1.00
C6       1.01071    0.84167    0.67469   1.00
C6       0.94225    0.81862    0.66352   1.00
H2       0.96212    0.87656    0.65798   1.00
H2       0.89051    0.85383    0.71957   1.00
C6       0.88378    0.89798    0.76293   1.00
C6       0.88393    0.90889    0.69053   1.00
H2       0.95375    0.94035    0.74353   1.00
C6       1.01336    0.92532    0.75095   1.00
C6       0.98244    0.94624    0.68832   1.00
H2       1.10346    0.88119    0.78316   1.00
H2       1.13090    0.86037    0.82158   1.00
H2       1.12917    0.91157    0.81528   1.00
H2       1.09608    0.93254    0.88120   1.00
H2       1.07178    0.89456    0.90566   1.00
H2       1.11964    0.88782    0.88867   1.00
H2       0.93672    0.83857    0.86787   1.00
H2       0.96532    0.80498    0.84237   1.00
H2       0.97352    0.81271    0.89282   1.00
H2       1.00862    0.91640    0.88504   1.00
H2       0.96308    0.89708    0.89733   1.00
H2       1.00550    0.87601    0.91747   1.00
H2       1.05514    0.81824    0.92090   1.00
H2       1.08708    0.77865    0.91247   1.00
H2       1.10332    0.82566    0.90352   1.00
H2       1.01902    0.76272    0.88220   1.00
H2       1.02068    0.76245    0.83122   1.00
H2       1.05828    0.74051    0.85777   1.00
H2       1.01688    0.81370    0.68846   1.00
H2       1.01809    0.83867    0.64379   1.00
H2       1.03048    0.86333    0.68688   1.00
H2       0.95125    0.81119    0.63380   1.00
H2       0.94574    0.79238    0.68103   1.00
H2       0.91122    0.82553    0.66195   1.00
H2       0.85202    0.89475    0.76239   1.00
H2       0.89435    0.88099    0.78777   1.00
H2       0.89035    0.92865    0.76836   1.00
H2       0.89416    0.89988    0.66176   1.00
H2       0.85212    0.90610    0.69038   1.00
H2       0.89085    0.93973    0.69459   1.00
H2       1.03656    0.90780    0.73803   1.00
H2       1.02381    0.95532    0.75364   1.00
H2       1.00834    0.91462    0.78033   1.00
H2       0.99044    0.97649    0.69464   1.00
H2       1.00622    0.93329    0.67148   1.00
H2       0.95657    0.94728    0.66985   1.00
C4       0.75242    0.47916    0.74815   1.00
C4       0.75170    0.52088    0.74804   1.00
C3       0.76437    0.45636    0.71569   1.00
C3       0.75942    0.54384    0.71441   1.00
C3       0.73999    0.45877    0.78228   1.00
C3       0.74290    0.54114    0.78336   1.00
C2       0.75120    0.39488    0.75003   1.00
C2       0.74880    0.60512    0.74997   1.00
C3       0.76358    0.41538    0.71649   1.00
C3       0.75838    0.58481    0.71542   1.00
C3       0.74010    0.41742    0.78276   1.00
C3       0.74036    0.58238    0.78334   1.00
H1       0.77413    0.46885    0.69055   1.00
H1       0.76579    0.53148    0.68815   1.00
C5       0.72769    0.47980    0.81577   1.00
C5       0.73634    0.52020    0.81841   1.00
H1       0.77229    0.40045    0.69203   1.00
H1       0.76455    0.59990    0.69028   1.00
H1       0.73214    0.40320    0.80782   1.00
H1       0.73159    0.59632    0.80822   1.00
O3       0.70970    0.46039    0.84604   1.00
O3       0.73549    0.53901    0.85409   1.00
Si1      0.66215    0.45753    0.84742   1.00
Si1      0.77657    0.54721    0.87673   1.00
C6       0.65890    0.42462    0.88692   1.00
C6       0.64431    0.50402    0.86035   1.00
C6       0.64169    0.43747    0.80460   1.00
C6       0.82047    0.53307    0.85361   1.00
C6       0.77632    0.59802    0.88324   1.00
C6       0.77304    0.52523    0.92307   1.00
C6       0.68632    0.38806    0.88477   1.00
H2       0.67001    0.44209    0.91114   1.00
C6       0.61836    0.40853    0.90097   1.00
H2       0.66905    0.51642    0.87609   1.00
C6       0.63474    0.53366    0.82697   1.00
C6       0.60893    0.50664    0.88911   1.00
H2       0.65988    0.41169    0.79992   1.00
C6       0.59863    0.42228    0.80709   1.00
C6       0.64285    0.46151    0.76556   1.00
C6       0.82531    0.48929    0.84167   1.00
C6       0.83648    0.55775    0.81862   1.00
H2       0.84202    0.53788    0.87656   1.00
H2       0.78043    0.60949    0.85383   1.00
C6       0.73707    0.61622    0.89798   1.00
C6       0.80947    0.61607    0.90889   1.00
H2       0.75647    0.54625    0.94035   1.00
C6       0.74905    0.48664    0.92532   1.00
C6       0.81168    0.51756    0.94624   1.00
H2       0.71684    0.39654    0.88119   1.00
H2       0.67842    0.36910    0.86037   1.00
H2       0.68472    0.37083    0.91157   1.00
H2       0.61880    0.40392    0.93254   1.00
H2       0.59434    0.42822    0.89456   1.00
H2       0.61133    0.38036    0.88782   1.00
H2       0.63213    0.56328    0.83857   1.00
H2       0.65763    0.53468    0.80498   1.00
H2       0.60718    0.52648    0.81271   1.00
H2       0.61496    0.49138    0.91640   1.00
H2       0.60267    0.53692    0.89708   1.00
H2       0.58253    0.49450    0.87601   1.00
H2       0.57910    0.44486    0.81824   1.00
H2       0.58753    0.41292    0.77865   1.00
H2       0.59648    0.39668    0.82566   1.00
H2       0.61780    0.48098    0.76272   1.00
H2       0.66878    0.47932    0.76245   1.00
H2       0.64223    0.44172    0.74051   1.00
H2       0.81154    0.48312    0.81370   1.00
H2       0.85621    0.48191    0.83867   1.00
H2       0.81312    0.46952    0.86333   1.00
H2       0.86620    0.54875    0.81119   1.00
H2       0.81897    0.55426    0.79238   1.00
H2       0.83805    0.58878    0.82553   1.00
H2       0.73761    0.64798    0.89475   1.00
H2       0.71223    0.60565    0.88099   1.00
H2       0.73164    0.60965    0.92865   1.00
H2       0.83824    0.60584    0.89988   1.00
H2       0.80962    0.64788    0.90610   1.00
H2       0.80541    0.60915    0.93973   1.00
H2       0.76197    0.46344    0.90780   1.00
H2       0.74636    0.47619    0.95532   1.00
H2       0.71967    0.49166    0.91462   1.00
H2       0.80536    0.50956    0.97649   1.00
H2       0.82852    0.49378    0.93329   1.00
H2       0.83015    0.54343    0.94728   1.00
C4       0.74815    0.75242    0.47916   1.00
C4       0.74804    0.75170    0.52088   1.00
C3       0.71569    0.76437    0.45636   1.00
C3       0.71441    0.75942    0.54384   1.00
C3       0.78228    0.73999    0.45877   1.00
C3       0.78336    0.74290    0.54114   1.00
C2       0.75003    0.75120    0.39488   1.00
C2       0.74997    0.74880    0.60512   1.00
C3       0.71649    0.76358    0.41538   1.00
C3       0.71542    0.75838    0.58481   1.00
C3       0.78276    0.74010    0.41742   1.00
C3       0.78334    0.74036    0.58238   1.00
H1       0.69055    0.77413    0.46885   1.00
H1       0.68815    0.76579    0.53148   1.00
C5       0.81577    0.72769    0.47980   1.00
C5       0.81841    0.73634    0.52020   1.00
H1       0.69203    0.77229    0.40045   1.00
H1       0.69028    0.76455    0.59990   1.00
H1       0.80782    0.73214    0.40320   1.00
H1       0.80822    0.73159    0.59632   1.00
O3       0.84604    0.70970    0.46039   1.00
O3       0.85409    0.73549    0.53901   1.00
Si1      0.84742    0.66215    0.45753   1.00
Si1      0.87673    0.77657    0.54721   1.00
C6       0.88692    0.65890    0.42462   1.00
C6       0.86035    0.64431    0.50402   1.00
C6       0.80460    0.64169    0.43747   1.00
C6       0.85361    0.82047    0.53307   1.00
C6       0.88324    0.77632    0.59802   1.00
C6       0.92307    0.77304    0.52523   1.00
C6       0.88477    0.68632    0.38806   1.00
H2       0.91114    0.67001    0.44209   1.00
C6       0.90097    0.61836    0.40853   1.00
H2       0.87609    0.66905    0.51642   1.00
C6       0.82697    0.63474    0.53366   1.00
C6       0.88911    0.60893    0.50664   1.00
H2       0.79992    0.65988    0.41169   1.00
C6       0.80709    0.59863    0.42228   1.00
C6       0.76556    0.64285    0.46151   1.00
C6       0.84167    0.82531    0.48929   1.00
C6       0.81862    0.83648    0.55775   1.00
H2       0.87656    0.84202    0.53788   1.00
H2       0.85383    0.78043    0.60949   1.00
C6       0.89798    0.73707    0.61622   1.00
C6       0.90889    0.80947    0.61607   1.00
H2       0.94035    0.75647    0.54625   1.00
C6       0.92532    0.74905    0.48664   1.00
C6       0.94624    0.81168    0.51756   1.00
H2       0.88119    0.71684    0.39654   1.00
H2       0.86037    0.67842    0.36910   1.00
H2       0.91157    0.68472    0.37083   1.00
H2       0.93254    0.61880    0.40392   1.00
H2       0.89456    0.59434    0.42822   1.00
H2       0.88782    0.61133    0.38036   1.00
H2       0.83857    0.63213    0.56328   1.00
H2       0.80498    0.65763    0.53468   1.00
H2       0.81271    0.60718    0.52648   1.00
H2       0.91640    0.61496    0.49138   1.00
H2       0.89708    0.60267    0.53692   1.00
H2       0.87601    0.58253    0.49450   1.00
H2       0.81824    0.57910    0.44486   1.00
H2       0.77865    0.58753    0.41292   1.00
H2       0.82566    0.59648    0.39668   1.00
H2       0.76272    0.61780    0.48098   1.00
H2       0.76245    0.66878    0.47932   1.00
H2       0.74051    0.64223    0.44172   1.00
H2       0.81370    0.81154    0.48312   1.00
H2       0.83867    0.85621    0.48191   1.00
H2       0.86333    0.81312    0.46952   1.00
H2       0.81119    0.86620    0.54875   1.00
H2       0.79238    0.81897    0.55426   1.00
H2       0.82553    0.83805    0.58878   1.00
H2       0.89475    0.73761    0.64798   1.00
H2       0.88099    0.71223    0.60565   1.00
H2       0.92865    0.73164    0.60965   1.00
H2       0.89988    0.83824    0.60584   1.00
H2       0.90610    0.80962    0.64788   1.00
H2       0.93973    0.80541    0.60915   1.00
H2       0.90780    0.76197    0.46344   1.00
H2       0.95532    0.74636    0.47619   1.00
H2       0.91462    0.71967    0.49166   1.00
H2       0.97649    0.80536    0.50956   1.00
H2       0.93329    0.82852    0.49378   1.00
H2       0.94728    0.83015    0.54343   1.00
C4       0.24815    0.24758    1.02084   1.00
C4       0.24804    0.24830    0.97912   1.00
C3       0.21569    0.23563    1.04364   1.00
C3       0.21441    0.24058    0.95616   1.00
C3       0.28228    0.26001    1.04123   1.00
C3       0.28336    0.25710    0.95886   1.00
C2       0.25003    0.24880    1.10512   1.00
C2       0.24997    0.25120    0.89488   1.00
C3       0.21649    0.23642    1.08462   1.00
C3       0.21542    0.24162    0.91519   1.00
C3       0.28276    0.25990    1.08258   1.00
C3       0.28334    0.25964    0.91762   1.00
H1       0.19055    0.22587    1.03115   1.00
H1       0.18815    0.23421    0.96852   1.00
C5       0.31577    0.27231    1.02020   1.00
C5       0.31841    0.26366    0.97980   1.00
H1       0.19203    0.22771    1.09955   1.00
H1       0.19028    0.23545    0.90010   1.00
H1       0.30782    0.26786    1.09680   1.00
H1       0.30822    0.26841    0.90368   1.00
O3       0.34604    0.29030    1.03961   1.00
O3       0.35409    0.26451    0.96099   1.00
Si1      0.34742    0.33785    1.04247   1.00
Si1      0.37673    0.22343    0.95279   1.00
C6       0.38692    0.34110    1.07538   1.00
C6       0.36035    0.35569    0.99598   1.00
C6       0.30460    0.35831    1.06253   1.00
C6       0.35361    0.17953    0.96693   1.00
C6       0.38324    0.22368    0.90198   1.00
C6       0.42307    0.22696    0.97477   1.00
C6       0.38477    0.31368    1.11194   1.00
H2       0.41114    0.32999    1.05791   1.00
C6       0.40097    0.38164    1.09147   1.00
H2       0.37609    0.33095    0.98358   1.00
C6       0.32697    0.36526    0.96634   1.00
C6       0.38911    0.39107    0.99336   1.00
H2       0.29992    0.34012    1.08831   1.00
C6       0.30709    0.40137    1.07772   1.00
C6       0.26556    0.35715    1.03849   1.00
C6       0.34167    0.17469    1.01071   1.00
C6       0.31862    0.16352    0.94225   1.00
H2       0.37656    0.15798    0.96212   1.00
H2       0.35383    0.21957    0.89051   1.00
C6       0.39798    0.26293    0.88378   1.00
C6       0.40889    0.19053    0.88393   1.00
H2       0.44035    0.24353    0.95375   1.00
C6       0.42532    0.25095    1.01336   1.00
C6       0.44624    0.18832    0.98244   1.00
H2       0.38119    0.28316    1.10346   1.00
H2       0.36037    0.32158    1.13090   1.00
H2       0.41157    0.31528    1.12917   1.00
H2       0.43254    0.38120    1.09608   1.00
H2       0.39456    0.40566    1.07178   1.00
H2       0.38782    0.38867    1.11964   1.00
H2       0.33857    0.36787    0.93672   1.00
H2       0.30498    0.34237    0.96532   1.00
H2       0.31271    0.39282    0.97352   1.00
H2       0.41640    0.38504    1.00862   1.00
H2       0.39708    0.39733    0.96308   1.00
H2       0.37601    0.41747    1.00550   1.00
H2       0.31824    0.42090    1.05514   1.00
H2       0.27865    0.41247    1.08708   1.00
H2       0.32566    0.40352    1.10332   1.00
H2       0.26272    0.38220    1.01902   1.00
H2       0.26245    0.33122    1.02068   1.00
H2       0.24051    0.35777    1.05828   1.00
H2       0.31370    0.18846    1.01688   1.00
H2       0.33867    0.14379    1.01809   1.00
H2       0.36333    0.18688    1.03048   1.00
H2       0.31119    0.13380    0.95125   1.00
H2       0.29238    0.18103    0.94574   1.00
H2       0.32553    0.16195    0.91122   1.00
H2       0.39475    0.26239    0.85202   1.00
H2       0.38099    0.28777    0.89435   1.00
H2       0.42865    0.26836    0.89035   1.00
H2       0.39988    0.16176    0.89416   1.00
H2       0.40610    0.19038    0.85212   1.00
H2       0.43973    0.19459    0.89085   1.00
H2       0.40780    0.23803    1.03656   1.00
H2       0.45532    0.25364    1.02381   1.00
H2       0.41462    0.28033    1.00834   1.00
H2       0.47649    0.19464    0.99044   1.00
H2       0.43329    0.17148    1.00622   1.00
H2       0.44728    0.16985    0.95657   1.00
C4       0.24758    0.52084    0.74815   1.00
C4       0.24830    0.47912    0.74804   1.00
C3       0.23563    0.54364    0.71569   1.00
C3       0.24058    0.45616    0.71441   1.00
C3       0.26001    0.54123    0.78228   1.00
C3       0.25710    0.45886    0.78336   1.00
C2       0.24880    0.60512    0.75003   1.00
C2       0.25120    0.39488    0.74997   1.00
C3       0.23642    0.58462    0.71649   1.00
C3       0.24162    0.41519    0.71542   1.00
C3       0.25990    0.58258    0.78276   1.00
C3       0.25964    0.41762    0.78334   1.00
H1       0.22587    0.53115    0.69055   1.00
H1       0.23421    0.46852    0.68815   1.00
C5       0.27231    0.52020    0.81577   1.00
C5       0.26366    0.47980    0.81841   1.00
H1       0.22771    0.59955    0.69203   1.00
H1       0.23545    0.40010    0.69028   1.00
H1       0.26786    0.59680    0.80782   1.00
H1       0.26841    0.40368    0.80822   1.00
O3       0.29030    0.53961    0.84604   1.00
O3       0.26451    0.46099    0.85409   1.00
Si1      0.33785    0.54247    0.84742   1.00
Si1      0.22343    0.45279    0.87673   1.00
C6       0.34110    0.57538    0.88692   1.00
C6       0.35569    0.49598    0.86035   1.00
C6       0.35831    0.56253    0.80460   1.00
C6       0.17953    0.46693    0.85361   1.00
C6       0.22368    0.40198    0.88324   1.00
C6       0.22696    0.47477    0.92307   1.00
C6       0.31368    0.61194    0.88477   1.00
H2       0.32999    0.55791    0.91114   1.00
C6       0.38164    0.59147    0.90097   1.00
H2       0.33095    0.48358    0.87609   1.00
C6       0.36526    0.46634    0.82697   1.00
C6       0.39107    0.49336    0.88911   1.00
H2       0.34012    0.58831    0.79992   1.00
C6       0.40137    0.57772    0.80709   1.00
C6       0.35715    0.53849    0.76556   1.00
C6       0.17469    0.51071    0.84167   1.00
C6       0.16352    0.44225    0.81862   1.00
H2       0.15798    0.46212    0.87656   1.00
H2       0.21957    0.39051    0.85383   1.00
C6       0.26293    0.38378    0.89798   1.00
C6       0.19053    0.38393    0.90889   1.00
H2       0.24353    0.45375    0.94035   1.00
C6       0.25095    0.51336    0.92532   1.00
C6       0.18832    0.48244    0.94624   1.00
H2       0.28316    0.60346    0.88119   1.00
H2       0.32158    0.63090    0.86037   1.00
H2       0.31528    0.62917    0.91157   1.00
H2       0.38120    0.59608    0.93254   1.00
H2       0.40566    0.57178    0.89456   1.00
H2       0.38867    0.61964    0.88782   1.00
H2       0.36787    0.43672    0.83857   1.00
H2       0.34237    0.46532    0.80498   1.00
H2       0.39282    0.47352    0.81271   1.00
H2       0.38504    0.50862    0.91640   1.00
H2       0.39733    0.46308    0.89708   1.00
H2       0.41747    0.50550    0.87601   1.00
H2       0.42090    0.55514    0.81824   1.00
H2       0.41247    0.58708    0.77865   1.00
H2       0.40352    0.60332    0.82566   1.00
H2       0.38220    0.51902    0.76272   1.00
H2       0.33122    0.52068    0.76245   1.00
H2       0.35777    0.55828    0.74051   1.00
H2       0.18846    0.51688    0.81370   1.00
H2       0.14379    0.51809    0.83867   1.00
H2       0.18688    0.53048    0.86333   1.00
H2       0.13380    0.45125    0.81119   1.00
H2       0.18103    0.44574    0.79238   1.00
H2       0.16195    0.41122    0.82553   1.00
H2       0.26239    0.35202    0.89475   1.00
H2       0.28777    0.39435    0.88099   1.00
H2       0.26836    0.39035    0.92865   1.00
H2       0.16176    0.39416    0.89988   1.00
H2       0.19038    0.35212    0.90610   1.00
H2       0.19459    0.39085    0.93973   1.00
H2       0.23803    0.53656    0.90780   1.00
H2       0.25364    0.52381    0.95532   1.00
H2       0.28033    0.50834    0.91462   1.00
H2       0.19464    0.49044    0.97649   1.00
H2       0.17148    0.50622    0.93329   1.00
H2       0.16985    0.45657    0.94728   1.00
C4       -0.02084   0.24815    0.75242   1.00
C4       0.02088    0.24804    0.75170   1.00
C3       -0.04364   0.21569    0.76437   1.00
C3       0.04384    0.21441    0.75942   1.00
C3       -0.04123   0.28228    0.73999   1.00
C3       0.04114    0.28336    0.74290   1.00
C2       -0.10512   0.25003    0.75120   1.00
C2       0.10512    0.24997    0.74880   1.00
C3       -0.08462   0.21649    0.76358   1.00
C3       0.08481    0.21542    0.75838   1.00
C3       -0.08258   0.28276    0.74010   1.00
C3       0.08238    0.28334    0.74036   1.00
H1       -0.03115   0.19055    0.77413   1.00
H1       0.03148    0.18815    0.76579   1.00
C5       -0.02020   0.31577    0.72769   1.00
C5       0.02020    0.31841    0.73634   1.00
H1       -0.09955   0.19203    0.77229   1.00
H1       0.09990    0.19028    0.76455   1.00
H1       -0.09680   0.30782    0.73214   1.00
H1       0.09632    0.30822    0.73159   1.00
O3       -0.03961   0.34604    0.70970   1.00
O3       0.03901    0.35409    0.73549   1.00
Si1      -0.04247   0.34742    0.66215   1.00
Si1      0.04721    0.37673    0.77657   1.00
C6       -0.07538   0.38692    0.65890   1.00
C6       0.00402    0.36035    0.64431   1.00
C6       -0.06253   0.30460    0.64169   1.00
C6       0.03307    0.35361    0.82047   1.00
C6       0.09802    0.38324    0.77632   1.00
C6       0.02523    0.42307    0.77304   1.00
C6       -0.11194   0.38477    0.68632   1.00
H2       -0.05791   0.41114    0.67001   1.00
C6       -0.09147   0.40097    0.61836   1.00
H2       0.01642    0.37609    0.66905   1.00
C6       0.03366    0.32697    0.63474   1.00
C6       0.00664    0.38911    0.60893   1.00
H2       -0.08831   0.29992    0.65988   1.00
C6       -0.07772   0.30709    0.59863   1.00
C6       -0.03849   0.26556    0.64285   1.00
C6       -0.01071   0.34167    0.82531   1.00
C6       0.05775    0.31862    0.83648   1.00
H2       0.03788    0.37656    0.84202   1.00
H2       0.10949    0.35383    0.78043   1.00
C6       0.11622    0.39798    0.73707   1.00
C6       0.11607    0.40889    0.80947   1.00
H2       0.04625    0.44035    0.75647   1.00
C6       -0.01336   0.42532    0.74905   1.00
C6       0.01756    0.44624    0.81168   1.00
H2       -0.10346   0.38119    0.71684   1.00
H2       -0.13090   0.36037    0.67842   1.00
H2       -0.12917   0.41157    0.68472   1.00
H2       -0.09608   0.43254    0.61880   1.00
H2       -0.07178   0.39456    0.59434   1.00
H2       -0.11964   0.38782    0.61133   1.00
H2       0.06328    0.33857    0.63213   1.00
H2       0.03468    0.30498    0.65763   1.00
H2       0.02648    0.31271    0.60718   1.00
H2       -0.00862   0.41640    0.61496   1.00
H2       0.03692    0.39708    0.60267   1.00
H2       -0.00550   0.37601    0.58253   1.00
H2       -0.05514   0.31824    0.57910   1.00
H2       -0.08708   0.27865    0.58753   1.00
H2       -0.10332   0.32566    0.59648   1.00
H2       -0.01902   0.26272    0.61780   1.00
H2       -0.02068   0.26245    0.66878   1.00
H2       -0.05828   0.24051    0.64223   1.00
H2       -0.01688   0.31370    0.81154   1.00
H2       -0.01809   0.33867    0.85621   1.00
H2       -0.03048   0.36333    0.81312   1.00
H2       0.04875    0.31119    0.86620   1.00
H2       0.05426    0.29238    0.81897   1.00
H2       0.08878    0.32553    0.83805   1.00
H2       0.14798    0.39475    0.73761   1.00
H2       0.10565    0.38099    0.71223   1.00
H2       0.10965    0.42865    0.73164   1.00
H2       0.10584    0.39988    0.83824   1.00
H2       0.14788    0.40610    0.80962   1.00
H2       0.10915    0.43973    0.80541   1.00
H2       -0.03656   0.40780    0.76197   1.00
H2       -0.02381   0.45532    0.74636   1.00
H2       -0.00834   0.41462    0.71967   1.00
H2       0.00956    0.47649    0.80536   1.00
H2       -0.00622   0.43329    0.82852   1.00
H2       0.04343    0.44728    0.83015   1.00
C4       0.52084    0.24815    0.74758   1.00
C4       0.47912    0.24804    0.74830   1.00
C3       0.54364    0.21569    0.73563   1.00
C3       0.45616    0.21441    0.74058   1.00
C3       0.54123    0.28228    0.76001   1.00
C3       0.45886    0.28336    0.75710   1.00
C2       0.60512    0.25003    0.74880   1.00
C2       0.39488    0.24997    0.75120   1.00
C3       0.58462    0.21649    0.73642   1.00
C3       0.41519    0.21542    0.74162   1.00
C3       0.58258    0.28276    0.75990   1.00
C3       0.41762    0.28334    0.75964   1.00
H1       0.53115    0.19055    0.72587   1.00
H1       0.46852    0.18815    0.73421   1.00
C5       0.52020    0.31577    0.77231   1.00
C5       0.47980    0.31841    0.76366   1.00
H1       0.59955    0.19203    0.72771   1.00
H1       0.40010    0.19028    0.73545   1.00
H1       0.59680    0.30782    0.76786   1.00
H1       0.40368    0.30822    0.76841   1.00
O3       0.53961    0.34604    0.79030   1.00
O3       0.46099    0.35409    0.76451   1.00
Si1      0.54247    0.34742    0.83785   1.00
Si1      0.45279    0.37673    0.72343   1.00
C6       0.57538    0.38692    0.84110   1.00
C6       0.49598    0.36035    0.85569   1.00
C6       0.56253    0.30460    0.85831   1.00
C6       0.46693    0.35361    0.67953   1.00
C6       0.40198    0.38324    0.72368   1.00
C6       0.47477    0.42307    0.72696   1.00
C6       0.61194    0.38477    0.81368   1.00
H2       0.55791    0.41114    0.82999   1.00
C6       0.59147    0.40097    0.88164   1.00
H2       0.48358    0.37609    0.83095   1.00
C6       0.46634    0.32697    0.86526   1.00
C6       0.49336    0.38911    0.89107   1.00
H2       0.58831    0.29992    0.84012   1.00
C6       0.57772    0.30709    0.90137   1.00
C6       0.53849    0.26556    0.85715   1.00
C6       0.51071    0.34167    0.67469   1.00
C6       0.44225    0.31862    0.66352   1.00
H2       0.46212    0.37656    0.65798   1.00
H2       0.39051    0.35383    0.71957   1.00
C6       0.38378    0.39798    0.76293   1.00
C6       0.38393    0.40889    0.69053   1.00
H2       0.45375    0.44035    0.74353   1.00
C6       0.51336    0.42532    0.75095   1.00
C6       0.48244    0.44624    0.68832   1.00
H2       0.60346    0.38119    0.78316   1.00
H2       0.63090    0.36037    0.82158   1.00
H2       0.62917    0.41157    0.81528   1.00
H2       0.59608    0.43254    0.88120   1.00
H2       0.57178    0.39456    0.90566   1.00
H2       0.61964    0.38782    0.88867   1.00
H2       0.43672    0.33857    0.86787   1.00
H2       0.46532    0.30498    0.84237   1.00
H2       0.47352    0.31271    0.89282   1.00
H2       0.50862    0.41640    0.88504   1.00
H2       0.46308    0.39708    0.89733   1.00
H2       0.50550    0.37601    0.91747   1.00
H2       0.55514    0.31824    0.92090   1.00
H2       0.58708    0.27865    0.91247   1.00
H2       0.60332    0.32566    0.90352   1.00
H2       0.51902    0.26272    0.88220   1.00
H2       0.52068    0.26245    0.83122   1.00
H2       0.55828    0.24051    0.85777   1.00
H2       0.51688    0.31370    0.68846   1.00
H2       0.51809    0.33867    0.64379   1.00
H2       0.53048    0.36333    0.68688   1.00
H2       0.45125    0.31119    0.63380   1.00
H2       0.44574    0.29238    0.68103   1.00
H2       0.41122    0.32553    0.66195   1.00
H2       0.35202    0.39475    0.76239   1.00
H2       0.39435    0.38099    0.78777   1.00
H2       0.39035    0.42865    0.76836   1.00
H2       0.39416    0.39988    0.66176   1.00
H2       0.35212    0.40610    0.69038   1.00
H2       0.39085    0.43973    0.69459   1.00
H2       0.53656    0.40780    0.73803   1.00
H2       0.52381    0.45532    0.75364   1.00
H2       0.50834    0.41462    0.78033   1.00
H2       0.49044    0.47649    0.69464   1.00
H2       0.50622    0.43329    0.67148   1.00
H2       0.45657    0.44728    0.66985   1.00
C4       0.25242    -0.02084   0.74815   1.00
C4       0.25170    0.02088    0.74804   1.00
C3       0.26437    -0.04364   0.71569   1.00
C3       0.25942    0.04384    0.71441   1.00
C3       0.23999    -0.04123   0.78228   1.00
C3       0.24290    0.04114    0.78336   1.00
C2       0.25120    -0.10512   0.75003   1.00
C2       0.24880    0.10512    0.74997   1.00
C3       0.26358    -0.08462   0.71649   1.00
C3       0.25838    0.08481    0.71542   1.00
C3       0.24010    -0.08258   0.78276   1.00
C3       0.24036    0.08238    0.78334   1.00
H1       0.27413    -0.03115   0.69055   1.00
H1       0.26579    0.03148    0.68815   1.00
C5       0.22769    -0.02020   0.81577   1.00
C5       0.23634    0.02020    0.81841   1.00
H1       0.27229    -0.09955   0.69203   1.00
H1       0.26455    0.09990    0.69028   1.00
H1       0.23214    -0.09680   0.80782   1.00
H1       0.23159    0.09632    0.80822   1.00
O3       0.20970    -0.03961   0.84604   1.00
O3       0.23549    0.03901    0.85409   1.00
Si1      0.16215    -0.04247   0.84742   1.00
Si1      0.27657    0.04721    0.87673   1.00
C6       0.15890    -0.07538   0.88692   1.00
C6       0.14431    0.00402    0.86035   1.00
C6       0.14169    -0.06253   0.80460   1.00
C6       0.32047    0.03307    0.85361   1.00
C6       0.27632    0.09802    0.88324   1.00
C6       0.27304    0.02523    0.92307   1.00
C6       0.18632    -0.11194   0.88477   1.00
H2       0.17001    -0.05791   0.91114   1.00
C6       0.11836    -0.09147   0.90097   1.00
H2       0.16905    0.01642    0.87609   1.00
C6       0.13474    0.03366    0.82697   1.00
C6       0.10893    0.00664    0.88911   1.00
H2       0.15988    -0.08831   0.79992   1.00
C6       0.09863    -0.07772   0.80709   1.00
C6       0.14285    -0.03849   0.76556   1.00
C6       0.32531    -0.01071   0.84167   1.00
C6       0.33648    0.05775    0.81862   1.00
H2       0.34202    0.03788    0.87656   1.00
H2       0.28043    0.10949    0.85383   1.00
C6       0.23707    0.11622    0.89798   1.00
C6       0.30947    0.11607    0.90889   1.00
H2       0.25647    0.04625    0.94035   1.00
C6       0.24905    -0.01336   0.92532   1.00
C6       0.31168    0.01756    0.94624   1.00
H2       0.21684    -0.10346   0.88119   1.00
H2       0.17842    -0.13090   0.86037   1.00
H2       0.18472    -0.12917   0.91157   1.00
H2       0.11880    -0.09608   0.93254   1.00
H2       0.09434    -0.07178   0.89456   1.00
H2       0.11133    -0.11964   0.88782   1.00
H2       0.13213    0.06328    0.83857   1.00
H2       0.15763    0.03468    0.80498   1.00
H2       0.10718    0.02648    0.81271   1.00
H2       0.11496    -0.00862   0.91640   1.00
H2       0.10267    0.03692    0.89708   1.00
H2       0.08253    -0.00550   0.87601   1.00
H2       0.07910    -0.05514   0.81824   1.00
H2       0.08753    -0.08708   0.77865   1.00
H2       0.09648    -0.10332   0.82566   1.00
H2       0.11780    -0.01902   0.76272   1.00
H2       0.16878    -0.02068   0.76245   1.00
H2       0.14223    -0.05828   0.74051   1.00
H2       0.31154    -0.01688   0.81370   1.00
H2       0.35621    -0.01809   0.83867   1.00
H2       0.31312    -0.03048   0.86333   1.00
H2       0.36620    0.04875    0.81119   1.00
H2       0.31897    0.05426    0.79238   1.00
H2       0.33805    0.08878    0.82553   1.00
H2       0.23761    0.14798    0.89475   1.00
H2       0.21223    0.10565    0.88099   1.00
H2       0.23164    0.10965    0.92865   1.00
H2       0.33824    0.10584    0.89988   1.00
H2       0.30962    0.14788    0.90610   1.00
H2       0.30541    0.10915    0.93973   1.00
H2       0.26197    -0.03656   0.90780   1.00
H2       0.24636    -0.02381   0.95532   1.00
H2       0.21967    -0.00834   0.91462   1.00
H2       0.30536    0.00956    0.97649   1.00
H2       0.32852    -0.00622   0.93329   1.00
H2       0.33015    0.04343    0.94728   1.00
C4       0.24815    0.25242    0.47916   1.00
C4       0.24804    0.25170    0.52088   1.00
C3       0.21569    0.26437    0.45636   1.00
C3       0.21441    0.25942    0.54384   1.00
C3       0.28228    0.23999    0.45877   1.00
C3       0.28336    0.24290    0.54114   1.00
C2       0.25003    0.25120    0.39488   1.00
C2       0.24997    0.24880    0.60512   1.00
C3       0.21649    0.26358    0.41538   1.00
C3       0.21542    0.25838    0.58481   1.00
C3       0.28276    0.24010    0.41742   1.00
C3       0.28334    0.24036    0.58238   1.00
H1       0.19055    0.27413    0.46885   1.00
H1       0.18815    0.26579    0.53148   1.00
C5       0.31577    0.22769    0.47980   1.00
C5       0.31841    0.23634    0.52020   1.00
H1       0.19203    0.27229    0.40045   1.00
H1       0.19028    0.26455    0.59990   1.00
H1       0.30782    0.23214    0.40320   1.00
H1       0.30822    0.23159    0.59632   1.00
O3       0.34604    0.20970    0.46039   1.00
O3       0.35409    0.23549    0.53901   1.00
Si1      0.34742    0.16215    0.45753   1.00
Si1      0.37673    0.27657    0.54721   1.00
C6       0.38692    0.15890    0.42462   1.00
C6       0.36035    0.14431    0.50402   1.00
C6       0.30460    0.14169    0.43747   1.00
C6       0.35361    0.32047    0.53307   1.00
C6       0.38324    0.27632    0.59802   1.00
C6       0.42307    0.27304    0.52523   1.00
C6       0.38477    0.18632    0.38806   1.00
H2       0.41114    0.17001    0.44209   1.00
C6       0.40097    0.11836    0.40853   1.00
H2       0.37609    0.16905    0.51642   1.00
C6       0.32697    0.13474    0.53366   1.00
C6       0.38911    0.10893    0.50664   1.00
H2       0.29992    0.15988    0.41169   1.00
C6       0.30709    0.09863    0.42228   1.00
C6       0.26556    0.14285    0.46151   1.00
C6       0.34167    0.32531    0.48929   1.00
C6       0.31862    0.33648    0.55775   1.00
H2       0.37656    0.34202    0.53788   1.00
H2       0.35383    0.28043    0.60949   1.00
C6       0.39798    0.23707    0.61622   1.00
C6       0.40889    0.30947    0.61607   1.00
H2       0.44035    0.25647    0.54625   1.00
C6       0.42532    0.24905    0.48664   1.00
C6       0.44624    0.31168    0.51756   1.00
H2       0.38119    0.21684    0.39654   1.00
H2       0.36037    0.17842    0.36910   1.00
H2       0.41157    0.18472    0.37083   1.00
H2       0.43254    0.11880    0.40392   1.00
H2       0.39456    0.09434    0.42822   1.00
H2       0.38782    0.11133    0.38036   1.00
H2       0.33857    0.13213    0.56328   1.00
H2       0.30498    0.15763    0.53468   1.00
H2       0.31271    0.10718    0.52648   1.00
H2       0.41640    0.11496    0.49138   1.00
H2       0.39708    0.10267    0.53692   1.00
H2       0.37601    0.08253    0.49450   1.00
H2       0.31824    0.07910    0.44486   1.00
H2       0.27865    0.08753    0.41292   1.00
H2       0.32566    0.09648    0.39668   1.00
H2       0.26272    0.11780    0.48098   1.00
H2       0.26245    0.16878    0.47932   1.00
H2       0.24051    0.14223    0.44172   1.00
H2       0.31370    0.31154    0.48312   1.00
H2       0.33867    0.35621    0.48191   1.00
H2       0.36333    0.31312    0.46952   1.00
H2       0.31119    0.36620    0.54875   1.00
H2       0.29238    0.31897    0.55426   1.00
H2       0.32553    0.33805    0.58878   1.00
H2       0.39475    0.23761    0.64798   1.00
H2       0.38099    0.21223    0.60565   1.00
H2       0.42865    0.23164    0.60965   1.00
H2       0.39988    0.33824    0.60584   1.00
H2       0.40610    0.30962    0.64788   1.00
H2       0.43973    0.30541    0.60915   1.00
H2       0.40780    0.26197    0.46344   1.00
H2       0.45532    0.24636    0.47619   1.00
H2       0.41462    0.21967    0.49166   1.00
H2       0.47649    0.30536    0.50956   1.00
H2       0.43329    0.32852    0.49378   1.00
H2       0.44728    0.33015    0.54343   1.00
C4       0.24815    0.74758    0.52084   1.00
C4       0.24804    0.74830    0.47912   1.00
C3       0.21569    0.73563    0.54364   1.00
C3       0.21441    0.74058    0.45616   1.00
C3       0.28228    0.76001    0.54123   1.00
C3       0.28336    0.75710    0.45886   1.00
C2       0.25003    0.74880    0.60512   1.00
C2       0.24997    0.75120    0.39488   1.00
C3       0.21649    0.73642    0.58462   1.00
C3       0.21542    0.74162    0.41519   1.00
C3       0.28276    0.75990    0.58258   1.00
C3       0.28334    0.75964    0.41762   1.00
H1       0.19055    0.72587    0.53115   1.00
H1       0.18815    0.73421    0.46852   1.00
C5       0.31577    0.77231    0.52020   1.00
C5       0.31841    0.76366    0.47980   1.00
H1       0.19203    0.72771    0.59955   1.00
H1       0.19028    0.73545    0.40010   1.00
H1       0.30782    0.76786    0.59680   1.00
H1       0.30822    0.76841    0.40368   1.00
O3       0.34604    0.79030    0.53961   1.00
O3       0.35409    0.76451    0.46099   1.00
Si1      0.34742    0.83785    0.54247   1.00
Si1      0.37673    0.72343    0.45279   1.00
C6       0.38692    0.84110    0.57538   1.00
C6       0.36035    0.85569    0.49598   1.00
C6       0.30460    0.85831    0.56253   1.00
C6       0.35361    0.67953    0.46693   1.00
C6       0.38324    0.72368    0.40198   1.00
C6       0.42307    0.72696    0.47477   1.00
C6       0.38477    0.81368    0.61194   1.00
H2       0.41114    0.82999    0.55791   1.00
C6       0.40097    0.88164    0.59147   1.00
H2       0.37609    0.83095    0.48358   1.00
C6       0.32697    0.86526    0.46634   1.00
C6       0.38911    0.89107    0.49336   1.00
H2       0.29992    0.84012    0.58831   1.00
C6       0.30709    0.90137    0.57772   1.00
C6       0.26556    0.85715    0.53849   1.00
C6       0.34167    0.67469    0.51071   1.00
C6       0.31862    0.66352    0.44225   1.00
H2       0.37656    0.65798    0.46212   1.00
H2       0.35383    0.71957    0.39051   1.00
C6       0.39798    0.76293    0.38378   1.00
C6       0.40889    0.69053    0.38393   1.00
H2       0.44035    0.74353    0.45375   1.00
C6       0.42532    0.75095    0.51336   1.00
C6       0.44624    0.68832    0.48244   1.00
H2       0.38119    0.78316    0.60346   1.00
H2       0.36037    0.82158    0.63090   1.00
H2       0.41157    0.81528    0.62917   1.00
H2       0.43254    0.88120    0.59608   1.00
H2       0.39456    0.90566    0.57178   1.00
H2       0.38782    0.88867    0.61964   1.00
H2       0.33857    0.86787    0.43672   1.00
H2       0.30498    0.84237    0.46532   1.00
H2       0.31271    0.89282    0.47352   1.00
H2       0.41640    0.88504    0.50862   1.00
H2       0.39708    0.89733    0.46308   1.00
H2       0.37601    0.91747    0.50550   1.00
H2       0.31824    0.92090    0.55514   1.00
H2       0.27865    0.91247    0.58708   1.00
H2       0.32566    0.90352    0.60332   1.00
H2       0.26272    0.88220    0.51902   1.00
H2       0.26245    0.83122    0.52068   1.00
H2       0.24051    0.85777    0.55828   1.00
H2       0.31370    0.68846    0.51688   1.00
H2       0.33867    0.64379    0.51809   1.00
H2       0.36333    0.68688    0.53048   1.00
H2       0.31119    0.63380    0.45125   1.00
H2       0.29238    0.68103    0.44574   1.00
H2       0.32553    0.66195    0.41122   1.00
H2       0.39475    0.76239    0.35202   1.00
H2       0.38099    0.78777    0.39435   1.00
H2       0.42865    0.76836    0.39035   1.00
H2       0.39988    0.66176    0.39416   1.00
H2       0.40610    0.69038    0.35212   1.00
H2       0.43973    0.69459    0.39085   1.00
H2       0.40780    0.73803    0.53656   1.00
H2       0.45532    0.75364    0.52381   1.00
H2       0.41462    0.78033    0.50834   1.00
H2       0.47649    0.69464    0.49044   1.00
H2       0.43329    0.67148    0.50622   1.00
H2       0.44728    0.66985    0.45657   1.00
C4       0.24758    1.02084    0.24815   1.00
C4       0.24830    0.97912    0.24804   1.00
C3       0.23563    1.04364    0.21569   1.00
C3       0.24058    0.95616    0.21441   1.00
C3       0.26001    1.04123    0.28228   1.00
C3       0.25710    0.95886    0.28336   1.00
C2       0.24880    1.10512    0.25003   1.00
C2       0.25120    0.89488    0.24997   1.00
C3       0.23642    1.08462    0.21649   1.00
C3       0.24162    0.91519    0.21542   1.00
C3       0.25990    1.08258    0.28276   1.00
C3       0.25964    0.91762    0.28334   1.00
H1       0.22587    1.03115    0.19055   1.00
H1       0.23421    0.96852    0.18815   1.00
C5       0.27231    1.02020    0.31577   1.00
C5       0.26366    0.97980    0.31841   1.00
H1       0.22771    1.09955    0.19203   1.00
H1       0.23545    0.90010    0.19028   1.00
H1       0.26786    1.09680    0.30782   1.00
H1       0.26841    0.90368    0.30822   1.00
O3       0.29030    1.03961    0.34604   1.00
O3       0.26451    0.96099    0.35409   1.00
Si1      0.33785    1.04247    0.34742   1.00
Si1      0.22343    0.95279    0.37673   1.00
C6       0.34110    1.07538    0.38692   1.00
C6       0.35569    0.99598    0.36035   1.00
C6       0.35831    1.06253    0.30460   1.00
C6       0.17953    0.96693    0.35361   1.00
C6       0.22368    0.90198    0.38324   1.00
C6       0.22696    0.97477    0.42307   1.00
C6       0.31368    1.11194    0.38477   1.00
H2       0.32999    1.05791    0.41114   1.00
C6       0.38164    1.09147    0.40097   1.00
H2       0.33095    0.98358    0.37609   1.00
C6       0.36526    0.96634    0.32697   1.00
C6       0.39107    0.99336    0.38911   1.00
H2       0.34012    1.08831    0.29992   1.00
C6       0.40137    1.07772    0.30709   1.00
C6       0.35715    1.03849    0.26556   1.00
C6       0.17469    1.01071    0.34167   1.00
C6       0.16352    0.94225    0.31862   1.00
H2       0.15798    0.96212    0.37656   1.00
H2       0.21957    0.89051    0.35383   1.00
C6       0.26293    0.88378    0.39798   1.00
C6       0.19053    0.88393    0.40889   1.00
H2       0.24353    0.95375    0.44035   1.00
C6       0.25095    1.01336    0.42532   1.00
C6       0.18832    0.98244    0.44624   1.00
H2       0.28316    1.10346    0.38119   1.00
H2       0.32158    1.13090    0.36037   1.00
H2       0.31528    1.12917    0.41157   1.00
H2       0.38120    1.09608    0.43254   1.00
H2       0.40566    1.07178    0.39456   1.00
H2       0.38867    1.11964    0.38782   1.00
H2       0.36787    0.93672    0.33857   1.00
H2       0.34237    0.96532    0.30498   1.00
H2       0.39282    0.97352    0.31271   1.00
H2       0.38504    1.00862    0.41640   1.00
H2       0.39733    0.96308    0.39708   1.00
H2       0.41747    1.00550    0.37601   1.00
H2       0.42090    1.05514    0.31824   1.00
H2       0.41247    1.08708    0.27865   1.00
H2       0.40352    1.10332    0.32566   1.00
H2       0.38220    1.01902    0.26272   1.00
H2       0.33122    1.02068    0.26245   1.00
H2       0.35777    1.05828    0.24051   1.00
H2       0.18846    1.01688    0.31370   1.00
H2       0.14379    1.01809    0.33867   1.00
H2       0.18688    1.03048    0.36333   1.00
H2       0.13380    0.95125    0.31119   1.00
H2       0.18103    0.94574    0.29238   1.00
H2       0.16195    0.91122    0.32553   1.00
H2       0.26239    0.85202    0.39475   1.00
H2       0.28777    0.89435    0.38099   1.00
H2       0.26836    0.89035    0.42865   1.00
H2       0.16176    0.89416    0.39988   1.00
H2       0.19038    0.85212    0.40610   1.00
H2       0.19459    0.89085    0.43973   1.00
H2       0.23803    1.03656    0.40780   1.00
H2       0.25364    1.02381    0.45532   1.00
H2       0.28033    1.00834    0.41462   1.00
H2       0.19464    0.99044    0.47649   1.00
H2       0.17148    1.00622    0.43329   1.00
H2       0.16985    0.95657    0.44728   1.00
C4       -0.02084   0.74815    0.25242   1.00
C4       0.02088    0.74804    0.25170   1.00
C3       -0.04364   0.71569    0.26437   1.00
C3       0.04384    0.71441    0.25942   1.00
C3       -0.04123   0.78228    0.23999   1.00
C3       0.04114    0.78336    0.24290   1.00
C2       -0.10512   0.75003    0.25120   1.00
C2       0.10512    0.74997    0.24880   1.00
C3       -0.08462   0.71649    0.26358   1.00
C3       0.08481    0.71542    0.25838   1.00
C3       -0.08258   0.78276    0.24010   1.00
C3       0.08238    0.78334    0.24036   1.00
H1       -0.03115   0.69055    0.27413   1.00
H1       0.03148    0.68815    0.26579   1.00
C5       -0.02020   0.81577    0.22769   1.00
C5       0.02020    0.81841    0.23634   1.00
H1       -0.09955   0.69203    0.27229   1.00
H1       0.09990    0.69028    0.26455   1.00
H1       -0.09680   0.80782    0.23214   1.00
H1       0.09632    0.80822    0.23159   1.00
O3       -0.03961   0.84604    0.20970   1.00
O3       0.03901    0.85409    0.23549   1.00
Si1      -0.04247   0.84742    0.16215   1.00
Si1      0.04721    0.87673    0.27657   1.00
C6       -0.07538   0.88692    0.15890   1.00
C6       0.00402    0.86035    0.14431   1.00
C6       -0.06253   0.80460    0.14169   1.00
C6       0.03307    0.85361    0.32047   1.00
C6       0.09802    0.88324    0.27632   1.00
C6       0.02523    0.92307    0.27304   1.00
C6       -0.11194   0.88477    0.18632   1.00
H2       -0.05791   0.91114    0.17001   1.00
C6       -0.09147   0.90097    0.11836   1.00
H2       0.01642    0.87609    0.16905   1.00
C6       0.03366    0.82697    0.13474   1.00
C6       0.00664    0.88911    0.10893   1.00
H2       -0.08831   0.79992    0.15988   1.00
C6       -0.07772   0.80709    0.09863   1.00
C6       -0.03849   0.76556    0.14285   1.00
C6       -0.01071   0.84167    0.32531   1.00
C6       0.05775    0.81862    0.33648   1.00
H2       0.03788    0.87656    0.34202   1.00
H2       0.10949    0.85383    0.28043   1.00
C6       0.11622    0.89798    0.23707   1.00
C6       0.11607    0.90889    0.30947   1.00
H2       0.04625    0.94035    0.25647   1.00
C6       -0.01336   0.92532    0.24905   1.00
C6       0.01756    0.94624    0.31168   1.00
H2       -0.10346   0.88119    0.21684   1.00
H2       -0.13090   0.86037    0.17842   1.00
H2       -0.12917   0.91157    0.18472   1.00
H2       -0.09608   0.93254    0.11880   1.00
H2       -0.07178   0.89456    0.09434   1.00
H2       -0.11964   0.88782    0.11133   1.00
H2       0.06328    0.83857    0.13213   1.00
H2       0.03468    0.80498    0.15763   1.00
H2       0.02648    0.81271    0.10718   1.00
H2       -0.00862   0.91640    0.11496   1.00
H2       0.03692    0.89708    0.10267   1.00
H2       -0.00550   0.87601    0.08253   1.00
H2       -0.05514   0.81824    0.07910   1.00
H2       -0.08708   0.77865    0.08753   1.00
H2       -0.10332   0.82566    0.09648   1.00
H2       -0.01902   0.76272    0.11780   1.00
H2       -0.02068   0.76245    0.16878   1.00
H2       -0.05828   0.74051    0.14223   1.00
H2       -0.01688   0.81370    0.31154   1.00
H2       -0.01809   0.83867    0.35621   1.00
H2       -0.03048   0.86333    0.31312   1.00
H2       0.04875    0.81119    0.36620   1.00
H2       0.05426    0.79238    0.31897   1.00
H2       0.08878    0.82553    0.33805   1.00
H2       0.14798    0.89475    0.23761   1.00
H2       0.10565    0.88099    0.21223   1.00
H2       0.10965    0.92865    0.23164   1.00
H2       0.10584    0.89988    0.33824   1.00
H2       0.14788    0.90610    0.30962   1.00
H2       0.10915    0.93973    0.30541   1.00
H2       -0.03656   0.90780    0.26197   1.00
H2       -0.02381   0.95532    0.24636   1.00
H2       -0.00834   0.91462    0.21967   1.00
H2       0.00956    0.97649    0.30536   1.00
H2       -0.00622   0.93329    0.32852   1.00
H2       0.04343    0.94728    0.33015   1.00
C4       0.52084    0.74815    0.24758   1.00
C4       0.47912    0.74804    0.24830   1.00
C3       0.54364    0.71569    0.23563   1.00
C3       0.45616    0.71441    0.24058   1.00
C3       0.54123    0.78228    0.26001   1.00
C3       0.45886    0.78336    0.25710   1.00
C2       0.60512    0.75003    0.24880   1.00
C2       0.39488    0.74997    0.25120   1.00
C3       0.58462    0.71649    0.23642   1.00
C3       0.41519    0.71542    0.24162   1.00
C3       0.58258    0.78276    0.25990   1.00
C3       0.41762    0.78334    0.25964   1.00
H1       0.53115    0.69055    0.22587   1.00
H1       0.46852    0.68815    0.23421   1.00
C5       0.52020    0.81577    0.27231   1.00
C5       0.47980    0.81841    0.26366   1.00
H1       0.59955    0.69203    0.22771   1.00
H1       0.40010    0.69028    0.23545   1.00
H1       0.59680    0.80782    0.26786   1.00
H1       0.40368    0.80822    0.26841   1.00
O3       0.53961    0.84604    0.29030   1.00
O3       0.46099    0.85409    0.26451   1.00
Si1      0.54247    0.84742    0.33785   1.00
Si1      0.45279    0.87673    0.22343   1.00
C6       0.57538    0.88692    0.34110   1.00
C6       0.49598    0.86035    0.35569   1.00
C6       0.56253    0.80460    0.35831   1.00
C6       0.46693    0.85361    0.17953   1.00
C6       0.40198    0.88324    0.22368   1.00
C6       0.47477    0.92307    0.22696   1.00
C6       0.61194    0.88477    0.31368   1.00
H2       0.55791    0.91114    0.32999   1.00
C6       0.59147    0.90097    0.38164   1.00
H2       0.48358    0.87609    0.33095   1.00
C6       0.46634    0.82697    0.36526   1.00
C6       0.49336    0.88911    0.39107   1.00
H2       0.58831    0.79992    0.34012   1.00
C6       0.57772    0.80709    0.40137   1.00
C6       0.53849    0.76556    0.35715   1.00
C6       0.51071    0.84167    0.17469   1.00
C6       0.44225    0.81862    0.16352   1.00
H2       0.46212    0.87656    0.15798   1.00
H2       0.39051    0.85383    0.21957   1.00
C6       0.38378    0.89798    0.26293   1.00
C6       0.38393    0.90889    0.19053   1.00
H2       0.45375    0.94035    0.24353   1.00
C6       0.51336    0.92532    0.25095   1.00
C6       0.48244    0.94624    0.18832   1.00
H2       0.60346    0.88119    0.28316   1.00
H2       0.63090    0.86037    0.32158   1.00
H2       0.62917    0.91157    0.31528   1.00
H2       0.59608    0.93254    0.38120   1.00
H2       0.57178    0.89456    0.40566   1.00
H2       0.61964    0.88782    0.38867   1.00
H2       0.43672    0.83857    0.36787   1.00
H2       0.46532    0.80498    0.34237   1.00
H2       0.47352    0.81271    0.39282   1.00
H2       0.50862    0.91640    0.38504   1.00
H2       0.46308    0.89708    0.39733   1.00
H2       0.50550    0.87601    0.41747   1.00
H2       0.55514    0.81824    0.42090   1.00
H2       0.58708    0.77865    0.41247   1.00
H2       0.60332    0.82566    0.40352   1.00
H2       0.51902    0.76272    0.38220   1.00
H2       0.52068    0.76245    0.33122   1.00
H2       0.55828    0.74051    0.35777   1.00
H2       0.51688    0.81370    0.18846   1.00
H2       0.51809    0.83867    0.14379   1.00
H2       0.53048    0.86333    0.18688   1.00
H2       0.45125    0.81119    0.13380   1.00
H2       0.44574    0.79238    0.18103   1.00
H2       0.41122    0.82553    0.16195   1.00
H2       0.35202    0.89475    0.26239   1.00
H2       0.39435    0.88099    0.28777   1.00
H2       0.39035    0.92865    0.26836   1.00
H2       0.39416    0.89988    0.16176   1.00
H2       0.35212    0.90610    0.19038   1.00
H2       0.39085    0.93973    0.19459   1.00
H2       0.53656    0.90780    0.23803   1.00
H2       0.52381    0.95532    0.25364   1.00
H2       0.50834    0.91462    0.28033   1.00
H2       0.49044    0.97649    0.19464   1.00
H2       0.50622    0.93329    0.17148   1.00
H2       0.45657    0.94728    0.16985   1.00
C4       0.25242    0.47916    0.24815   1.00
C4       0.25170    0.52088    0.24804   1.00
C3       0.26437    0.45636    0.21569   1.00
C3       0.25942    0.54384    0.21441   1.00
C3       0.23999    0.45877    0.28228   1.00
C3       0.24290    0.54114    0.28336   1.00
C2       0.25120    0.39488    0.25003   1.00
C2       0.24880    0.60512    0.24997   1.00
C3       0.26358    0.41538    0.21649   1.00
C3       0.25838    0.58481    0.21542   1.00
C3       0.24010    0.41742    0.28276   1.00
C3       0.24036    0.58238    0.28334   1.00
H1       0.27413    0.46885    0.19055   1.00
H1       0.26579    0.53148    0.18815   1.00
C5       0.22769    0.47980    0.31577   1.00
C5       0.23634    0.52020    0.31841   1.00
H1       0.27229    0.40045    0.19203   1.00
H1       0.26455    0.59990    0.19028   1.00
H1       0.23214    0.40320    0.30782   1.00
H1       0.23159    0.59632    0.30822   1.00
O3       0.20970    0.46039    0.34604   1.00
O3       0.23549    0.53901    0.35409   1.00
Si1      0.16215    0.45753    0.34742   1.00
Si1      0.27657    0.54721    0.37673   1.00
C6       0.15890    0.42462    0.38692   1.00
C6       0.14431    0.50402    0.36035   1.00
C6       0.14169    0.43747    0.30460   1.00
C6       0.32047    0.53307    0.35361   1.00
C6       0.27632    0.59802    0.38324   1.00
C6       0.27304    0.52523    0.42307   1.00
C6       0.18632    0.38806    0.38477   1.00
H2       0.17001    0.44209    0.41114   1.00
C6       0.11836    0.40853    0.40097   1.00
H2       0.16905    0.51642    0.37609   1.00
C6       0.13474    0.53366    0.32697   1.00
C6       0.10893    0.50664    0.38911   1.00
H2       0.15988    0.41169    0.29992   1.00
C6       0.09863    0.42228    0.30709   1.00
C6       0.14285    0.46151    0.26556   1.00
C6       0.32531    0.48929    0.34167   1.00
C6       0.33648    0.55775    0.31862   1.00
H2       0.34202    0.53788    0.37656   1.00
H2       0.28043    0.60949    0.35383   1.00
C6       0.23707    0.61622    0.39798   1.00
C6       0.30947    0.61607    0.40889   1.00
H2       0.25647    0.54625    0.44035   1.00
C6       0.24905    0.48664    0.42532   1.00
C6       0.31168    0.51756    0.44624   1.00
H2       0.21684    0.39654    0.38119   1.00
H2       0.17842    0.36910    0.36037   1.00
H2       0.18472    0.37083    0.41157   1.00
H2       0.11880    0.40392    0.43254   1.00
H2       0.09434    0.42822    0.39456   1.00
H2       0.11133    0.38036    0.38782   1.00
H2       0.13213    0.56328    0.33857   1.00
H2       0.15763    0.53468    0.30498   1.00
H2       0.10718    0.52648    0.31271   1.00
H2       0.11496    0.49138    0.41640   1.00
H2       0.10267    0.53692    0.39708   1.00
H2       0.08253    0.49450    0.37601   1.00
H2       0.07910    0.44486    0.31824   1.00
H2       0.08753    0.41292    0.27865   1.00
H2       0.09648    0.39668    0.32566   1.00
H2       0.11780    0.48098    0.26272   1.00
H2       0.16878    0.47932    0.26245   1.00
H2       0.14223    0.44172    0.24051   1.00
H2       0.31154    0.48312    0.31370   1.00
H2       0.35621    0.48191    0.33867   1.00
H2       0.31312    0.46952    0.36333   1.00
H2       0.36620    0.54875    0.31119   1.00
H2       0.31897    0.55426    0.29238   1.00
H2       0.33805    0.58878    0.32553   1.00
H2       0.23761    0.64798    0.39475   1.00
H2       0.21223    0.60565    0.38099   1.00
H2       0.23164    0.60965    0.42865   1.00
H2       0.33824    0.60584    0.39988   1.00
H2       0.30962    0.64788    0.40610   1.00
H2       0.30541    0.60915    0.43973   1.00
H2       0.26197    0.46344    0.40780   1.00
H2       0.24636    0.47619    0.45532   1.00
H2       0.21967    0.49166    0.41462   1.00
H2       0.30536    0.50956    0.47649   1.00
H2       0.32852    0.49378    0.43329   1.00
H2       0.33015    0.54343    0.44728   1.00
C4       0.24815    0.75242    -0.02084   1.00
C4       0.24804    0.75170    0.02088   1.00
C3       0.21569    0.76437    -0.04364   1.00
C3       0.21441    0.75942    0.04384   1.00
C3       0.28228    0.73999    -0.04123   1.00
C3       0.28336    0.74290    0.04114   1.00
C2       0.25003    0.75120    -0.10512   1.00
C2       0.24997    0.74880    0.10512   1.00
C3       0.21649    0.76358    -0.08462   1.00
C3       0.21542    0.75838    0.08481   1.00
C3       0.28276    0.74010    -0.08258   1.00
C3       0.28334    0.74036    0.08238   1.00
H1       0.19055    0.77413    -0.03115   1.00
H1       0.18815    0.76579    0.03148   1.00
C5       0.31577    0.72769    -0.02020   1.00
C5       0.31841    0.73634    0.02020   1.00
H1       0.19203    0.77229    -0.09955   1.00
H1       0.19028    0.76455    0.09990   1.00
H1       0.30782    0.73214    -0.09680   1.00
H1       0.30822    0.73159    0.09632   1.00
O3       0.34604    0.70970    -0.03961   1.00
O3       0.35409    0.73549    0.03901   1.00
Si1      0.34742    0.66215    -0.04247   1.00
Si1      0.37673    0.77657    0.04721   1.00
C6       0.38692    0.65890    -0.07538   1.00
C6       0.36035    0.64431    0.00402   1.00
C6       0.30460    0.64169    -0.06253   1.00
C6       0.35361    0.82047    0.03307   1.00
C6       0.38324    0.77632    0.09802   1.00
C6       0.42307    0.77304    0.02523   1.00
C6       0.38477    0.68632    -0.11194   1.00
H2       0.41114    0.67001    -0.05791   1.00
C6       0.40097    0.61836    -0.09147   1.00
H2       0.37609    0.66905    0.01642   1.00
C6       0.32697    0.63474    0.03366   1.00
C6       0.38911    0.60893    0.00664   1.00
H2       0.29992    0.65988    -0.08831   1.00
C6       0.30709    0.59863    -0.07772   1.00
C6       0.26556    0.64285    -0.03849   1.00
C6       0.34167    0.82531    -0.01071   1.00
C6       0.31862    0.83648    0.05775   1.00
H2       0.37656    0.84202    0.03788   1.00
H2       0.35383    0.78043    0.10949   1.00
C6       0.39798    0.73707    0.11622   1.00
C6       0.40889    0.80947    0.11607   1.00
H2       0.44035    0.75647    0.04625   1.00
C6       0.42532    0.74905    -0.01336   1.00
C6       0.44624    0.81168    0.01756   1.00
H2       0.38119    0.71684    -0.10346   1.00
H2       0.36037    0.67842    -0.13090   1.00
H2       0.41157    0.68472    -0.12917   1.00
H2       0.43254    0.61880    -0.09608   1.00
H2       0.39456    0.59434    -0.07178   1.00
H2       0.38782    0.61133    -0.11964   1.00
H2       0.33857    0.63213    0.06328   1.00
H2       0.30498    0.65763    0.03468   1.00
H2       0.31271    0.60718    0.02648   1.00
H2       0.41640    0.61496    -0.00862   1.00
H2       0.39708    0.60267    0.03692   1.00
H2       0.37601    0.58253    -0.00550   1.00
H2       0.31824    0.57910    -0.05514   1.00
H2       0.27865    0.58753    -0.08708   1.00
H2       0.32566    0.59648    -0.10332   1.00
H2       0.26272    0.61780    -0.01902   1.00
H2       0.26245    0.66878    -0.02068   1.00
H2       0.24051    0.64223    -0.05828   1.00
H2       0.31370    0.81154    -0.01688   1.00
H2       0.33867    0.85621    -0.01809   1.00
H2       0.36333    0.81312    -0.03048   1.00
H2       0.31119    0.86620    0.04875   1.00
H2       0.29238    0.81897    0.05426   1.00
H2       0.32553    0.83805    0.08878   1.00
H2       0.39475    0.73761    0.14798   1.00
H2       0.38099    0.71223    0.10565   1.00
H2       0.42865    0.73164    0.10965   1.00
H2       0.39988    0.83824    0.10584   1.00
H2       0.40610    0.80962    0.14788   1.00
H2       0.43973    0.80541    0.10915   1.00
H2       0.40780    0.76197    -0.03656   1.00
H2       0.45532    0.74636    -0.02381   1.00
H2       0.41462    0.71967    -0.00834   1.00
H2       0.47649    0.80536    0.00956   1.00
H2       0.43329    0.82852    -0.00622   1.00
H2       0.44728    0.83015    0.04343   1.00
C4       0.74815    0.24758    0.52084   1.00
C4       0.74804    0.24830    0.47912   1.00
C3       0.71569    0.23563    0.54364   1.00
C3       0.71441    0.24058    0.45616   1.00
C3       0.78228    0.26001    0.54123   1.00
C3       0.78336    0.25710    0.45886   1.00
C2       0.75003    0.24880    0.60512   1.00
C2       0.74997    0.25120    0.39488   1.00
C3       0.71649    0.23642    0.58462   1.00
C3       0.71542    0.24162    0.41519   1.00
C3       0.78276    0.25990    0.58258   1.00
C3       0.78334    0.25964    0.41762   1.00
H1       0.69055    0.22587    0.53115   1.00
H1       0.68815    0.23421    0.46852   1.00
C5       0.81577    0.27231    0.52020   1.00
C5       0.81841    0.26366    0.47980   1.00
H1       0.69203    0.22771    0.59955   1.00
H1       0.69028    0.23545    0.40010   1.00
H1       0.80782    0.26786    0.59680   1.00
H1       0.80822    0.26841    0.40368   1.00
O3       0.84604    0.29030    0.53961   1.00
O3       0.85409    0.26451    0.46099   1.00
Si1      0.84742    0.33785    0.54247   1.00
Si1      0.87673    0.22343    0.45279   1.00
C6       0.88692    0.34110    0.57538   1.00
C6       0.86035    0.35569    0.49598   1.00
C6       0.80460    0.35831    0.56253   1.00
C6       0.85361    0.17953    0.46693   1.00
C6       0.88324    0.22368    0.40198   1.00
C6       0.92307    0.22696    0.47477   1.00
C6       0.88477    0.31368    0.61194   1.00
H2       0.91114    0.32999    0.55791   1.00
C6       0.90097    0.38164    0.59147   1.00
H2       0.87609    0.33095    0.48358   1.00
C6       0.82697    0.36526    0.46634   1.00
C6       0.88911    0.39107    0.49336   1.00
H2       0.79992    0.34012    0.58831   1.00
C6       0.80709    0.40137    0.57772   1.00
C6       0.76556    0.35715    0.53849   1.00
C6       0.84167    0.17469    0.51071   1.00
C6       0.81862    0.16352    0.44225   1.00
H2       0.87656    0.15798    0.46212   1.00
H2       0.85383    0.21957    0.39051   1.00
C6       0.89798    0.26293    0.38378   1.00
C6       0.90889    0.19053    0.38393   1.00
H2       0.94035    0.24353    0.45375   1.00
C6       0.92532    0.25095    0.51336   1.00
C6       0.94624    0.18832    0.48244   1.00
H2       0.88119    0.28316    0.60346   1.00
H2       0.86037    0.32158    0.63090   1.00
H2       0.91157    0.31528    0.62917   1.00
H2       0.93254    0.38120    0.59608   1.00
H2       0.89456    0.40566    0.57178   1.00
H2       0.88782    0.38867    0.61964   1.00
H2       0.83857    0.36787    0.43672   1.00
H2       0.80498    0.34237    0.46532   1.00
H2       0.81271    0.39282    0.47352   1.00
H2       0.91640    0.38504    0.50862   1.00
H2       0.89708    0.39733    0.46308   1.00
H2       0.87601    0.41747    0.50550   1.00
H2       0.81824    0.42090    0.55514   1.00
H2       0.77865    0.41247    0.58708   1.00
H2       0.82566    0.40352    0.60332   1.00
H2       0.76272    0.38220    0.51902   1.00
H2       0.76245    0.33122    0.52068   1.00
H2       0.74051    0.35777    0.55828   1.00
H2       0.81370    0.18846    0.51688   1.00
H2       0.83867    0.14379    0.51809   1.00
H2       0.86333    0.18688    0.53048   1.00
H2       0.81119    0.13380    0.45125   1.00
H2       0.79238    0.18103    0.44574   1.00
H2       0.82553    0.16195    0.41122   1.00
H2       0.89475    0.26239    0.35202   1.00
H2       0.88099    0.28777    0.39435   1.00
H2       0.92865    0.26836    0.39035   1.00
H2       0.89988    0.16176    0.39416   1.00
H2       0.90610    0.19038    0.35212   1.00
H2       0.93973    0.19459    0.39085   1.00
H2       0.90780    0.23803    0.53656   1.00
H2       0.95532    0.25364    0.52381   1.00
H2       0.91462    0.28033    0.50834   1.00
H2       0.97649    0.19464    0.49044   1.00
H2       0.93329    0.17148    0.50622   1.00
H2       0.94728    0.16985    0.45657   1.00
C4       0.74758    0.52084    0.24815   1.00
C4       0.74830    0.47912    0.24804   1.00
C3       0.73563    0.54364    0.21569   1.00
C3       0.74058    0.45616    0.21441   1.00
C3       0.76001    0.54123    0.28228   1.00
C3       0.75710    0.45886    0.28336   1.00
C2       0.74880    0.60512    0.25003   1.00
C2       0.75120    0.39488    0.24997   1.00
C3       0.73642    0.58462    0.21649   1.00
C3       0.74162    0.41519    0.21542   1.00
C3       0.75990    0.58258    0.28276   1.00
C3       0.75964    0.41762    0.28334   1.00
H1       0.72587    0.53115    0.19055   1.00
H1       0.73421    0.46852    0.18815   1.00
C5       0.77231    0.52020    0.31577   1.00
C5       0.76366    0.47980    0.31841   1.00
H1       0.72771    0.59955    0.19203   1.00
H1       0.73545    0.40010    0.19028   1.00
H1       0.76786    0.59680    0.30782   1.00
H1       0.76841    0.40368    0.30822   1.00
O3       0.79030    0.53961    0.34604   1.00
O3       0.76451    0.46099    0.35409   1.00
Si1      0.83785    0.54247    0.34742   1.00
Si1      0.72343    0.45279    0.37673   1.00
C6       0.84110    0.57538    0.38692   1.00
C6       0.85569    0.49598    0.36035   1.00
C6       0.85831    0.56253    0.30460   1.00
C6       0.67953    0.46693    0.35361   1.00
C6       0.72368    0.40198    0.38324   1.00
C6       0.72696    0.47477    0.42307   1.00
C6       0.81368    0.61194    0.38477   1.00
H2       0.82999    0.55791    0.41114   1.00
C6       0.88164    0.59147    0.40097   1.00
H2       0.83095    0.48358    0.37609   1.00
C6       0.86526    0.46634    0.32697   1.00
C6       0.89107    0.49336    0.38911   1.00
H2       0.84012    0.58831    0.29992   1.00
C6       0.90137    0.57772    0.30709   1.00
C6       0.85715    0.53849    0.26556   1.00
C6       0.67469    0.51071    0.34167   1.00
C6       0.66352    0.44225    0.31862   1.00
H2       0.65798    0.46212    0.37656   1.00
H2       0.71957    0.39051    0.35383   1.00
C6       0.76293    0.38378    0.39798   1.00
C6       0.69053    0.38393    0.40889   1.00
H2       0.74353    0.45375    0.44035   1.00
C6       0.75095    0.51336    0.42532   1.00
C6       0.68832    0.48244    0.44624   1.00
H2       0.78316    0.60346    0.38119   1.00
H2       0.82158    0.63090    0.36037   1.00
H2       0.81528    0.62917    0.41157   1.00
H2       0.88120    0.59608    0.43254   1.00
H2       0.90566    0.57178    0.39456   1.00
H2       0.88867    0.61964    0.38782   1.00
H2       0.86787    0.43672    0.33857   1.00
H2       0.84237    0.46532    0.30498   1.00
H2       0.89282    0.47352    0.31271   1.00
H2       0.88504    0.50862    0.41640   1.00
H2       0.89733    0.46308    0.39708   1.00
H2       0.91747    0.50550    0.37601   1.00
H2       0.92090    0.55514    0.31824   1.00
H2       0.91247    0.58708    0.27865   1.00
H2       0.90352    0.60332    0.32566   1.00
H2       0.88220    0.51902    0.26272   1.00
H2       0.83122    0.52068    0.26245   1.00
H2       0.85777    0.55828    0.24051   1.00
H2       0.68846    0.51688    0.31370   1.00
H2       0.64379    0.51809    0.33867   1.00
H2       0.68688    0.53048    0.36333   1.00
H2       0.63380    0.45125    0.31119   1.00
H2       0.68103    0.44574    0.29238   1.00
H2       0.66195    0.41122    0.32553   1.00
H2       0.76239    0.35202    0.39475   1.00
H2       0.78777    0.39435    0.38099   1.00
H2       0.76836    0.39035    0.42865   1.00
H2       0.66176    0.39416    0.39988   1.00
H2       0.69038    0.35212    0.40610   1.00
H2       0.69459    0.39085    0.43973   1.00
H2       0.73803    0.53656    0.40780   1.00
H2       0.75364    0.52381    0.45532   1.00
H2       0.78033    0.50834    0.41462   1.00
H2       0.69464    0.49044    0.47649   1.00
H2       0.67148    0.50622    0.43329   1.00
H2       0.66985    0.45657    0.44728   1.00
C4       0.47916    0.24815    0.25242   1.00
C4       0.52088    0.24804    0.25170   1.00
C3       0.45636    0.21569    0.26437   1.00
C3       0.54384    0.21441    0.25942   1.00
C3       0.45877    0.28228    0.23999   1.00
C3       0.54114    0.28336    0.24290   1.00
C2       0.39488    0.25003    0.25120   1.00
C2       0.60512    0.24997    0.24880   1.00
C3       0.41538    0.21649    0.26358   1.00
C3       0.58481    0.21542    0.25838   1.00
C3       0.41742    0.28276    0.24010   1.00
C3       0.58238    0.28334    0.24036   1.00
H1       0.46885    0.19055    0.27413   1.00
H1       0.53148    0.18815    0.26579   1.00
C5       0.47980    0.31577    0.22769   1.00
C5       0.52020    0.31841    0.23634   1.00
H1       0.40045    0.19203    0.27229   1.00
H1       0.59990    0.19028    0.26455   1.00
H1       0.40320    0.30782    0.23214   1.00
H1       0.59632    0.30822    0.23159   1.00
O3       0.46039    0.34604    0.20970   1.00
O3       0.53901    0.35409    0.23549   1.00
Si1      0.45753    0.34742    0.16215   1.00
Si1      0.54721    0.37673    0.27657   1.00
C6       0.42462    0.38692    0.15890   1.00
C6       0.50402    0.36035    0.14431   1.00
C6       0.43747    0.30460    0.14169   1.00
C6       0.53307    0.35361    0.32047   1.00
C6       0.59802    0.38324    0.27632   1.00
C6       0.52523    0.42307    0.27304   1.00
C6       0.38806    0.38477    0.18632   1.00
H2       0.44209    0.41114    0.17001   1.00
C6       0.40853    0.40097    0.11836   1.00
H2       0.51642    0.37609    0.16905   1.00
C6       0.53366    0.32697    0.13474   1.00
C6       0.50664    0.38911    0.10893   1.00
H2       0.41169    0.29992    0.15988   1.00
C6       0.42228    0.30709    0.09863   1.00
C6       0.46151    0.26556    0.14285   1.00
C6       0.48929    0.34167    0.32531   1.00
C6       0.55775    0.31862    0.33648   1.00
H2       0.53788    0.37656    0.34202   1.00
H2       0.60949    0.35383    0.28043   1.00
C6       0.61622    0.39798    0.23707   1.00
C6       0.61607    0.40889    0.30947   1.00
H2       0.54625    0.44035    0.25647   1.00
C6       0.48664    0.42532    0.24905   1.00
C6       0.51756    0.44624    0.31168   1.00
H2       0.39654    0.38119    0.21684   1.00
H2       0.36910    0.36037    0.17842   1.00
H2       0.37083    0.41157    0.18472   1.00
H2       0.40392    0.43254    0.11880   1.00
H2       0.42822    0.39456    0.09434   1.00
H2       0.38036    0.38782    0.11133   1.00
H2       0.56328    0.33857    0.13213   1.00
H2       0.53468    0.30498    0.15763   1.00
H2       0.52648    0.31271    0.10718   1.00
H2       0.49138    0.41640    0.11496   1.00
H2       0.53692    0.39708    0.10267   1.00
H2       0.49450    0.37601    0.08253   1.00
H2       0.44486    0.31824    0.07910   1.00
H2       0.41292    0.27865    0.08753   1.00
H2       0.39668    0.32566    0.09648   1.00
H2       0.48098    0.26272    0.11780   1.00
H2       0.47932    0.26245    0.16878   1.00
H2       0.44172    0.24051    0.14223   1.00
H2       0.48312    0.31370    0.31154   1.00
H2       0.48191    0.33867    0.35621   1.00
H2       0.46952    0.36333    0.31312   1.00
H2       0.54875    0.31119    0.36620   1.00
H2       0.55426    0.29238    0.31897   1.00
H2       0.58878    0.32553    0.33805   1.00
H2       0.64798    0.39475    0.23761   1.00
H2       0.60565    0.38099    0.21223   1.00
H2       0.60965    0.42865    0.23164   1.00
H2       0.60584    0.39988    0.33824   1.00
H2       0.64788    0.40610    0.30962   1.00
H2       0.60915    0.43973    0.30541   1.00
H2       0.46344    0.40780    0.26197   1.00
H2       0.47619    0.45532    0.24636   1.00
H2       0.49166    0.41462    0.21967   1.00
H2       0.50956    0.47649    0.30536   1.00
H2       0.49378    0.43329    0.32852   1.00
H2       0.54343    0.44728    0.33015   1.00
C4       1.02084    0.24815    0.24758   1.00
C4       0.97912    0.24804    0.24830   1.00
C3       1.04364    0.21569    0.23563   1.00
C3       0.95616    0.21441    0.24058   1.00
C3       1.04123    0.28228    0.26001   1.00
C3       0.95886    0.28336    0.25710   1.00
C2       1.10512    0.25003    0.24880   1.00
C2       0.89488    0.24997    0.25120   1.00
C3       1.08462    0.21649    0.23642   1.00
C3       0.91519    0.21542    0.24162   1.00
C3       1.08258    0.28276    0.25990   1.00
C3       0.91762    0.28334    0.25964   1.00
H1       1.03115    0.19055    0.22587   1.00
H1       0.96852    0.18815    0.23421   1.00
C5       1.02020    0.31577    0.27231   1.00
C5       0.97980    0.31841    0.26366   1.00
H1       1.09955    0.19203    0.22771   1.00
H1       0.90010    0.19028    0.23545   1.00
H1       1.09680    0.30782    0.26786   1.00
H1       0.90368    0.30822    0.26841   1.00
O3       1.03961    0.34604    0.29030   1.00
O3       0.96099    0.35409    0.26451   1.00
Si1      1.04247    0.34742    0.33785   1.00
Si1      0.95279    0.37673    0.22343   1.00
C6       1.07538    0.38692    0.34110   1.00
C6       0.99598    0.36035    0.35569   1.00
C6       1.06253    0.30460    0.35831   1.00
C6       0.96693    0.35361    0.17953   1.00
C6       0.90198    0.38324    0.22368   1.00
C6       0.97477    0.42307    0.22696   1.00
C6       1.11194    0.38477    0.31368   1.00
H2       1.05791    0.41114    0.32999   1.00
C6       1.09147    0.40097    0.38164   1.00
H2       0.98358    0.37609    0.33095   1.00
C6       0.96634    0.32697    0.36526   1.00
C6       0.99336    0.38911    0.39107   1.00
H2       1.08831    0.29992    0.34012   1.00
C6       1.07772    0.30709    0.40137   1.00
C6       1.03849    0.26556    0.35715   1.00
C6       1.01071    0.34167    0.17469   1.00
C6       0.94225    0.31862    0.16352   1.00
H2       0.96212    0.37656    0.15798   1.00
H2       0.89051    0.35383    0.21957   1.00
C6       0.88378    0.39798    0.26293   1.00
C6       0.88393    0.40889    0.19053   1.00
H2       0.95375    0.44035    0.24353   1.00
C6       1.01336    0.42532    0.25095   1.00
C6       0.98244    0.44624    0.18832   1.00
H2       1.10346    0.38119    0.28316   1.00
H2       1.13090    0.36037    0.32158   1.00
H2       1.12917    0.41157    0.31528   1.00
H2       1.09608    0.43254    0.38120   1.00
H2       1.07178    0.39456    0.40566   1.00
H2       1.11964    0.38782    0.38867   1.00
H2       0.93672    0.33857    0.36787   1.00
H2       0.96532    0.30498    0.34237   1.00
H2       0.97352    0.31271    0.39282   1.00
H2       1.00862    0.41640    0.38504   1.00
H2       0.96308    0.39708    0.39733   1.00
H2       1.00550    0.37601    0.41747   1.00
H2       1.05514    0.31824    0.42090   1.00
H2       1.08708    0.27865    0.41247   1.00
H2       1.10332    0.32566    0.40352   1.00
H2       1.01902    0.26272    0.38220   1.00
H2       1.02068    0.26245    0.33122   1.00
H2       1.05828    0.24051    0.35777   1.00
H2       1.01688    0.31370    0.18846   1.00
H2       1.01809    0.33867    0.14379   1.00
H2       1.03048    0.36333    0.18688   1.00
H2       0.95125    0.31119    0.13380   1.00
H2       0.94574    0.29238    0.18103   1.00
H2       0.91122    0.32553    0.16195   1.00
H2       0.85202    0.39475    0.26239   1.00
H2       0.89435    0.38099    0.28777   1.00
H2       0.89035    0.42865    0.26836   1.00
H2       0.89416    0.39988    0.16176   1.00
H2       0.85212    0.40610    0.19038   1.00
H2       0.89085    0.43973    0.19459   1.00
H2       1.03656    0.40780    0.23803   1.00
H2       1.02381    0.45532    0.25364   1.00
H2       1.00834    0.41462    0.28033   1.00
H2       0.99044    0.47649    0.19464   1.00
H2       1.00622    0.43329    0.17148   1.00
H2       0.95657    0.44728    0.16985   1.00
C4       0.75242    -0.02084   0.24815   1.00
C4       0.75170    0.02088    0.24804   1.00
C3       0.76437    -0.04364   0.21569   1.00
C3       0.75942    0.04384    0.21441   1.00
C3       0.73999    -0.04123   0.28228   1.00
C3       0.74290    0.04114    0.28336   1.00
C2       0.75120    -0.10512   0.25003   1.00
C2       0.74880    0.10512    0.24997   1.00
C3       0.76358    -0.08462   0.21649   1.00
C3       0.75838    0.08481    0.21542   1.00
C3       0.74010    -0.08258   0.28276   1.00
C3       0.74036    0.08238    0.28334   1.00
H1       0.77413    -0.03115   0.19055   1.00
H1       0.76579    0.03148    0.18815   1.00
C5       0.72769    -0.02020   0.31577   1.00
C5       0.73634    0.02020    0.31841   1.00
H1       0.77229    -0.09955   0.19203   1.00
H1       0.76455    0.09990    0.19028   1.00
H1       0.73214    -0.09680   0.30782   1.00
H1       0.73159    0.09632    0.30822   1.00
O3       0.70970    -0.03961   0.34604   1.00
O3       0.73549    0.03901    0.35409   1.00
Si1      0.66215    -0.04247   0.34742   1.00
Si1      0.77657    0.04721    0.37673   1.00
C6       0.65890    -0.07538   0.38692   1.00
C6       0.64431    0.00402    0.36035   1.00
C6       0.64169    -0.06253   0.30460   1.00
C6       0.82047    0.03307    0.35361   1.00
C6       0.77632    0.09802    0.38324   1.00
C6       0.77304    0.02523    0.42307   1.00
C6       0.68632    -0.11194   0.38477   1.00
H2       0.67001    -0.05791   0.41114   1.00
C6       0.61836    -0.09147   0.40097   1.00
H2       0.66905    0.01642    0.37609   1.00
C6       0.63474    0.03366    0.32697   1.00
C6       0.60893    0.00664    0.38911   1.00
H2       0.65988    -0.08831   0.29992   1.00
C6       0.59863    -0.07772   0.30709   1.00
C6       0.64285    -0.03849   0.26556   1.00
C6       0.82531    -0.01071   0.34167   1.00
C6       0.83648    0.05775    0.31862   1.00
H2       0.84202    0.03788    0.37656   1.00
H2       0.78043    0.10949    0.35383   1.00
C6       0.73707    0.11622    0.39798   1.00
C6       0.80947    0.11607    0.40889   1.00
H2       0.75647    0.04625    0.44035   1.00
C6       0.74905    -0.01336   0.42532   1.00
C6       0.81168    0.01756    0.44624   1.00
H2       0.71684    -0.10346   0.38119   1.00
H2       0.67842    -0.13090   0.36037   1.00
H2       0.68472    -0.12917   0.41157   1.00
H2       0.61880    -0.09608   0.43254   1.00
H2       0.59434    -0.07178   0.39456   1.00
H2       0.61133    -0.11964   0.38782   1.00
H2       0.63213    0.06328    0.33857   1.00
H2       0.65763    0.03468    0.30498   1.00
H2       0.60718    0.02648    0.31271   1.00
H2       0.61496    -0.00862   0.41640   1.00
H2       0.60267    0.03692    0.39708   1.00
H2       0.58253    -0.00550   0.37601   1.00
H2       0.57910    -0.05514   0.31824   1.00
H2       0.58753    -0.08708   0.27865   1.00
H2       0.59648    -0.10332   0.32566   1.00
H2       0.61780    -0.01902   0.26272   1.00
H2       0.66878    -0.02068   0.26245   1.00
H2       0.64223    -0.05828   0.24051   1.00
H2       0.81154    -0.01688   0.31370   1.00
H2       0.85621    -0.01809   0.33867   1.00
H2       0.81312    -0.03048   0.36333   1.00
H2       0.86620    0.04875    0.31119   1.00
H2       0.81897    0.05426    0.29238   1.00
H2       0.83805    0.08878    0.32553   1.00
H2       0.73761    0.14798    0.39475   1.00
H2       0.71223    0.10565    0.38099   1.00
H2       0.73164    0.10965    0.42865   1.00
H2       0.83824    0.10584    0.39988   1.00
H2       0.80962    0.14788    0.40610   1.00
H2       0.80541    0.10915    0.43973   1.00
H2       0.76197    -0.03656   0.40780   1.00
H2       0.74636    -0.02381   0.45532   1.00
H2       0.71967    -0.00834   0.41462   1.00
H2       0.80536    0.00956    0.47649   1.00
H2       0.82852    -0.00622   0.43329   1.00
H2       0.83015    0.04343    0.44728   1.00
C4       0.74815    0.25242    -0.02084   1.00
C4       0.74804    0.25170    0.02088   1.00
C3       0.71569    0.26437    -0.04364   1.00
C3       0.71441    0.25942    0.04384   1.00
C3       0.78228    0.23999    -0.04123   1.00
C3       0.78336    0.24290    0.04114   1.00
C2       0.75003    0.25120    -0.10512   1.00
C2       0.74997    0.24880    0.10512   1.00
C3       0.71649    0.26358    -0.08462   1.00
C3       0.71542    0.25838    0.08481   1.00
C3       0.78276    0.24010    -0.08258   1.00
C3       0.78334    0.24036    0.08238   1.00
H1       0.69055    0.27413    -0.03115   1.00
H1       0.68815    0.26579    0.03148   1.00
C5       0.81577    0.22769    -0.02020   1.00
C5       0.81841    0.23634    0.02020   1.00
H1       0.69203    0.27229    -0.09955   1.00
H1       0.69028    0.26455    0.09990   1.00
H1       0.80782    0.23214    -0.09680   1.00
H1       0.80822    0.23159    0.09632   1.00
O3       0.84604    0.20970    -0.03961   1.00
O3       0.85409    0.23549    0.03901   1.00
Si1      0.84742    0.16215    -0.04247   1.00
Si1      0.87673    0.27657    0.04721   1.00
C6       0.88692    0.15890    -0.07538   1.00
C6       0.86035    0.14431    0.00402   1.00
C6       0.80460    0.14169    -0.06253   1.00
C6       0.85361    0.32047    0.03307   1.00
C6       0.88324    0.27632    0.09802   1.00
C6       0.92307    0.27304    0.02523   1.00
C6       0.88477    0.18632    -0.11194   1.00
H2       0.91114    0.17001    -0.05791   1.00
C6       0.90097    0.11836    -0.09147   1.00
H2       0.87609    0.16905    0.01642   1.00
C6       0.82697    0.13474    0.03366   1.00
C6       0.88911    0.10893    0.00664   1.00
H2       0.79992    0.15988    -0.08831   1.00
C6       0.80709    0.09863    -0.07772   1.00
C6       0.76556    0.14285    -0.03849   1.00
C6       0.84167    0.32531    -0.01071   1.00
C6       0.81862    0.33648    0.05775   1.00
H2       0.87656    0.34202    0.03788   1.00
H2       0.85383    0.28043    0.10949   1.00
C6       0.89798    0.23707    0.11622   1.00
C6       0.90889    0.30947    0.11607   1.00
H2       0.94035    0.25647    0.04625   1.00
C6       0.92532    0.24905    -0.01336   1.00
C6       0.94624    0.31168    0.01756   1.00
H2       0.88119    0.21684    -0.10346   1.00
H2       0.86037    0.17842    -0.13090   1.00
H2       0.91157    0.18472    -0.12917   1.00
H2       0.93254    0.11880    -0.09608   1.00
H2       0.89456    0.09434    -0.07178   1.00
H2       0.88782    0.11133    -0.11964   1.00
H2       0.83857    0.13213    0.06328   1.00
H2       0.80498    0.15763    0.03468   1.00
H2       0.81271    0.10718    0.02648   1.00
H2       0.91640    0.11496    -0.00862   1.00
H2       0.89708    0.10267    0.03692   1.00
H2       0.87601    0.08253    -0.00550   1.00
H2       0.81824    0.07910    -0.05514   1.00
H2       0.77865    0.08753    -0.08708   1.00
H2       0.82566    0.09648    -0.10332   1.00
H2       0.76272    0.11780    -0.01902   1.00
H2       0.76245    0.16878    -0.02068   1.00
H2       0.74051    0.14223    -0.05828   1.00
H2       0.81370    0.31154    -0.01688   1.00
H2       0.83867    0.35621    -0.01809   1.00
H2       0.86333    0.31312    -0.03048   1.00
H2       0.81119    0.36620    0.04875   1.00
H2       0.79238    0.31897    0.05426   1.00
H2       0.82553    0.33805    0.08878   1.00
H2       0.89475    0.23761    0.14798   1.00
H2       0.88099    0.21223    0.10565   1.00
H2       0.92865    0.23164    0.10965   1.00
H2       0.89988    0.33824    0.10584   1.00
H2       0.90610    0.30962    0.14788   1.00
H2       0.93973    0.30541    0.10915   1.00
H2       0.90780    0.26197    -0.03656   1.00
H2       0.95532    0.24636    -0.02381   1.00
H2       0.91462    0.21967    -0.00834   1.00
H2       0.97649    0.30536    0.00956   1.00
H2       0.93329    0.32852    -0.00622   1.00
H2       0.94728    0.33015    0.04343   1.00
C4       0.99815    0.99758    1.27084   1.00
C4       0.99804    0.99830    1.22912   1.00
C3       0.96569    0.98563    1.29364   1.00
C3       0.96441    0.99058    1.20616   1.00
C3       1.03228    1.01001    1.29123   1.00
C3       1.03336    1.00710    1.20886   1.00
C2       1.00003    0.99880    1.35512   1.00
C2       0.99997    1.00120    1.14488   1.00
C3       0.96649    0.98642    1.33462   1.00
C3       0.96542    0.99162    1.16519   1.00
C3       1.03276    1.00990    1.33258   1.00
C3       1.03334    1.00964    1.16762   1.00
H1       0.94055    0.97587    1.28115   1.00
H1       0.93815    0.98421    1.21852   1.00
C5       1.06577    1.02231    1.27020   1.00
C5       1.06841    1.01366    1.22980   1.00
H1       0.94203    0.97771    1.34955   1.00
H1       0.94028    0.98545    1.15010   1.00
H1       1.05782    1.01786    1.34680   1.00
H1       1.05822    1.01841    1.15368   1.00
O3       1.09604    1.04030    1.28961   1.00
O3       1.10409    1.01451    1.21099   1.00
Si1      1.09742    1.08785    1.29247   1.00
Si1      1.12673    0.97343    1.20279   1.00
C6       1.13692    1.09110    1.32538   1.00
C6       1.11035    1.10569    1.24598   1.00
C6       1.05460    1.10831    1.31253   1.00
C6       1.10361    0.92953    1.21693   1.00
C6       1.13324    0.97368    1.15198   1.00
C6       1.17307    0.97696    1.22477   1.00
C6       1.13477    1.06368    1.36194   1.00
H2       1.16114    1.07999    1.30791   1.00
C6       1.15097    1.13164    1.34147   1.00
H2       1.12609    1.08095    1.23358   1.00
C6       1.07697    1.11526    1.21634   1.00
C6       1.13911    1.14107    1.24336   1.00
H2       1.04992    1.09012    1.33831   1.00
C6       1.05709    1.15137    1.32772   1.00
C6       1.01556    1.10715    1.28849   1.00
C6       1.09167    0.92469    1.26071   1.00
C6       1.06862    0.91352    1.19225   1.00
H2       1.12656    0.90798    1.21212   1.00
H2       1.10383    0.96957    1.14051   1.00
C6       1.14798    1.01293    1.13378   1.00
C6       1.15889    0.94053    1.13393   1.00
H2       1.19035    0.99353    1.20375   1.00
C6       1.17532    1.00095    1.26336   1.00
C6       1.19624    0.93832    1.23244   1.00
H2       1.13119    1.03316    1.35346   1.00
H2       1.11037    1.07158    1.38090   1.00
H2       1.16157    1.06528    1.37917   1.00
H2       1.18254    1.13120    1.34608   1.00
H2       1.14456    1.15566    1.32178   1.00
H2       1.13782    1.13867    1.36964   1.00
H2       1.08857    1.11787    1.18672   1.00
H2       1.05498    1.09237    1.21532   1.00
H2       1.06271    1.14282    1.22352   1.00
H2       1.16640    1.13504    1.25862   1.00
H2       1.14708    1.14733    1.21308   1.00
H2       1.12601    1.16747    1.25550   1.00
H2       1.06824    1.17090    1.30514   1.00
H2       1.02865    1.16247    1.33708   1.00
H2       1.07566    1.15352    1.35332   1.00
H2       1.01272    1.13220    1.26902   1.00
H2       1.01245    1.08122    1.27068   1.00
H2       0.99051    1.10777    1.30828   1.00
H2       1.06370    0.93846    1.26688   1.00
H2       1.08867    0.89379    1.26809   1.00
H2       1.11333    0.93688    1.28048   1.00
H2       1.06119    0.88380    1.20125   1.00
H2       1.04238    0.93103    1.19574   1.00
H2       1.07553    0.91195    1.16122   1.00
H2       1.14475    1.01239    1.10202   1.00
H2       1.13099    1.03777    1.14435   1.00
H2       1.17865    1.01836    1.14035   1.00
H2       1.14988    0.91176    1.14416   1.00
H2       1.15610    0.94038    1.10212   1.00
H2       1.18973    0.94459    1.14085   1.00
H2       1.15780    0.98803    1.28656   1.00
H2       1.20532    1.00364    1.27381   1.00
H2       1.16462    1.03033    1.25834   1.00
H2       1.22649    0.94464    1.24044   1.00
H2       1.18329    0.92148    1.25622   1.00
H2       1.19728    0.91985    1.20657   1.00
C4       0.99758    1.27084    0.99815   1.00
C4       0.99830    1.22912    0.99804   1.00
C3       0.98563    1.29364    0.96569   1.00
C3       0.99058    1.20616    0.96441   1.00
C3       1.01001    1.29123    1.03228   1.00
C3       1.00710    1.20886    1.03336   1.00
C2       0.99880    1.35512    1.00003   1.00
C2       1.00120    1.14488    0.99997   1.00
C3       0.98642    1.33462    0.96649   1.00
C3       0.99162    1.16519    0.96542   1.00
C3       1.00990    1.33258    1.03276   1.00
C3       1.00964    1.16762    1.03334   1.00
H1       0.97587    1.28115    0.94055   1.00
H1       0.98421    1.21852    0.93815   1.00
C5       1.02231    1.27020    1.06577   1.00
C5       1.01366    1.22980    1.06841   1.00
H1       0.97771    1.34955    0.94203   1.00
H1       0.98545    1.15010    0.94028   1.00
H1       1.01786    1.34680    1.05782   1.00
H1       1.01841    1.15368    1.05822   1.00
O3       1.04030    1.28961    1.09604   1.00
O3       1.01451    1.21099    1.10409   1.00
Si1      1.08785    1.29247    1.09742   1.00
Si1      0.97343    1.20279    1.12673   1.00
C6       1.09110    1.32538    1.13692   1.00
C6       1.10569    1.24598    1.11035   1.00
C6       1.10831    1.31253    1.05460   1.00
C6       0.92953    1.21693    1.10361   1.00
C6       0.97368    1.15198    1.13324   1.00
C6       0.97696    1.22477    1.17307   1.00
C6       1.06368    1.36194    1.13477   1.00
H2       1.07999    1.30791    1.16114   1.00
C6       1.13164    1.34147    1.15097   1.00
H2       1.08095    1.23358    1.12609   1.00
C6       1.11526    1.21634    1.07697   1.00
C6       1.14107    1.24336    1.13911   1.00
H2       1.09012    1.33831    1.04992   1.00
C6       1.15137    1.32772    1.05709   1.00
C6       1.10715    1.28849    1.01556   1.00
C6       0.92469    1.26071    1.09167   1.00
C6       0.91352    1.19225    1.06862   1.00
H2       0.90798    1.21212    1.12656   1.00
H2       0.96957    1.14051    1.10383   1.00
C6       1.01293    1.13378    1.14798   1.00
C6       0.94053    1.13393    1.15889   1.00
H2       0.99353    1.20375    1.19035   1.00
C6       1.00095    1.26336    1.17532   1.00
C6       0.93832    1.23244    1.19624   1.00
H2       1.03316    1.35346    1.13119   1.00
H2       1.07158    1.38090    1.11037   1.00
H2       1.06528    1.37917    1.16157   1.00
H2       1.13120    1.34608    1.18254   1.00
H2       1.15566    1.32178    1.14456   1.00
H2       1.13867    1.36964    1.13782   1.00
H2       1.11787    1.18672    1.08857   1.00
H2       1.09237    1.21532    1.05498   1.00
H2       1.14282    1.22352    1.06271   1.00
H2       1.13504    1.25862    1.16640   1.00
H2       1.14733    1.21308    1.14708   1.00
H2       1.16747    1.25550    1.12601   1.00
H2       1.17090    1.30514    1.06824   1.00
H2       1.16247    1.33708    1.02865   1.00
H2       1.15352    1.35332    1.07566   1.00
H2       1.13220    1.26902    1.01272   1.00
H2       1.08122    1.27068    1.01245   1.00
H2       1.10777    1.30828    0.99051   1.00
H2       0.93846    1.26688    1.06370   1.00
H2       0.89379    1.26809    1.08867   1.00
H2       0.93688    1.28048    1.11333   1.00
H2       0.88380    1.20125    1.06119   1.00
H2       0.93103    1.19574    1.04238   1.00
H2       0.91195    1.16122    1.07553   1.00
H2       1.01239    1.10202    1.14475   1.00
H2       1.03777    1.14435    1.13099   1.00
H2       1.01836    1.14035    1.17865   1.00
H2       0.91176    1.14416    1.14988   1.00
H2       0.94038    1.10212    1.15610   1.00
H2       0.94459    1.14085    1.18973   1.00
H2       0.98803    1.28656    1.15780   1.00
H2       1.00364    1.27381    1.20532   1.00
H2       1.03033    1.25834    1.16462   1.00
H2       0.94464    1.24044    1.22649   1.00
H2       0.92148    1.25622    1.18329   1.00
H2       0.91985    1.20657    1.19728   1.00
C4       0.72916    0.99815    1.00242   1.00
C4       0.77088    0.99804    1.00170   1.00
C3       0.70636    0.96569    1.01437   1.00
C3       0.79384    0.96441    1.00942   1.00
C3       0.70877    1.03228    0.98999   1.00
C3       0.79114    1.03336    0.99290   1.00
C2       0.64488    1.00003    1.00120   1.00
C2       0.85512    0.99997    0.99880   1.00
C3       0.66538    0.96649    1.01358   1.00
C3       0.83481    0.96542    1.00838   1.00
C3       0.66742    1.03276    0.99010   1.00
C3       0.83238    1.03334    0.99036   1.00
H1       0.71885    0.94055    1.02413   1.00
H1       0.78148    0.93815    1.01579   1.00
C5       0.72980    1.06577    0.97769   1.00
C5       0.77020    1.06841    0.98634   1.00
H1       0.65045    0.94203    1.02229   1.00
H1       0.84990    0.94028    1.01455   1.00
H1       0.65320    1.05782    0.98214   1.00
H1       0.84632    1.05822    0.98159   1.00
O3       0.71039    1.09604    0.95970   1.00
O3       0.78901    1.10409    0.98549   1.00
Si1      0.70753    1.09742    0.91215   1.00
Si1      0.79721    1.12673    1.02657   1.00
C6       0.67462    1.13692    0.90890   1.00
C6       0.75402    1.11035    0.89431   1.00
C6       0.68747    1.05460    0.89169   1.00
C6       0.78307    1.10361    1.07047   1.00
C6       0.84802    1.13324    1.02632   1.00
C6       0.77523    1.17307    1.02304   1.00
C6       0.63806    1.13477    0.93632   1.00
H2       0.69209    1.16114    0.92001   1.00
C6       0.65853    1.15097    0.86836   1.00
H2       0.76642    1.12609    0.91905   1.00
C6       0.78366    1.07697    0.88474   1.00
C6       0.75664    1.13911    0.85893   1.00
H2       0.66169    1.04992    0.90988   1.00
C6       0.67228    1.05709    0.84863   1.00
C6       0.71151    1.01556    0.89285   1.00
C6       0.73929    1.09167    1.07531   1.00
C6       0.80775    1.06862    1.08648   1.00
H2       0.78788    1.12656    1.09202   1.00
H2       0.85949    1.10383    1.03043   1.00
C6       0.86622    1.14798    0.98707   1.00
C6       0.86607    1.15889    1.05947   1.00
H2       0.79625    1.19035    1.00647   1.00
C6       0.73664    1.17532    0.99905   1.00
C6       0.76756    1.19624    1.06168   1.00
H2       0.64654    1.13119    0.96684   1.00
H2       0.61910    1.11037    0.92842   1.00
H2       0.62083    1.16157    0.93472   1.00
H2       0.65392    1.18254    0.86880   1.00
H2       0.67822    1.14456    0.84434   1.00
H2       0.63036    1.13782    0.86133   1.00
H2       0.81328    1.08857    0.88213   1.00
H2       0.78468    1.05498    0.90763   1.00
H2       0.77648    1.06271    0.85718   1.00
H2       0.74138    1.16640    0.86496   1.00
H2       0.78692    1.14708    0.85267   1.00
H2       0.74450    1.12601    0.83253   1.00
H2       0.69486    1.06824    0.82910   1.00
H2       0.66292    1.02865    0.83753   1.00
H2       0.64668    1.07566    0.84648   1.00
H2       0.73098    1.01272    0.86780   1.00
H2       0.72932    1.01245    0.91878   1.00
H2       0.69172    0.99051    0.89223   1.00
H2       0.73312    1.06370    1.06154   1.00
H2       0.73191    1.08867    1.10621   1.00
H2       0.71952    1.11333    1.06312   1.00
H2       0.79875    1.06119    1.11620   1.00
H2       0.80426    1.04238    1.06897   1.00
H2       0.83878    1.07553    1.08805   1.00
H2       0.89798    1.14475    0.98761   1.00
H2       0.85565    1.13099    0.96223   1.00
H2       0.85965    1.17865    0.98164   1.00
H2       0.85584    1.14988    1.08824   1.00
H2       0.89788    1.15610    1.05962   1.00
H2       0.85915    1.18973    1.05541   1.00
H2       0.71344    1.15780    1.01197   1.00
H2       0.72619    1.20532    0.99636   1.00
H2       0.74166    1.16462    0.96967   1.00
H2       0.75956    1.22649    1.05536   1.00
H2       0.74378    1.18329    1.07852   1.00
H2       0.79343    1.19728    1.08015   1.00
C4       1.27084    0.99815    0.99758   1.00
C4       1.22912    0.99804    0.99830   1.00
C3       1.29364    0.96569    0.98563   1.00
C3       1.20616    0.96441    0.99058   1.00
C3       1.29123    1.03228    1.01001   1.00
C3       1.20886    1.03336    1.00710   1.00
C2       1.35512    1.00003    0.99880   1.00
C2       1.14488    0.99997    1.00120   1.00
C3       1.33462    0.96649    0.98642   1.00
C3       1.16519    0.96542    0.99162   1.00
C3       1.33258    1.03276    1.00990   1.00
C3       1.16762    1.03334    1.00964   1.00
H1       1.28115    0.94055    0.97587   1.00
H1       1.21852    0.93815    0.98421   1.00
C5       1.27020    1.06577    1.02231   1.00
C5       1.22980    1.06841    1.01366   1.00
H1       1.34955    0.94203    0.97771   1.00
H1       1.15010    0.94028    0.98545   1.00
H1       1.34680    1.05782    1.01786   1.00
H1       1.15368    1.05822    1.01841   1.00
O3       1.28961    1.09604    1.04030   1.00
O3       1.21099    1.10409    1.01451   1.00
Si1      1.29247    1.09742    1.08785   1.00
Si1      1.20279    1.12673    0.97343   1.00
C6       1.32538    1.13692    1.09110   1.00
C6       1.24598    1.11035    1.10569   1.00
C6       1.31253    1.05460    1.10831   1.00
C6       1.21693    1.10361    0.92953   1.00
C6       1.15198    1.13324    0.97368   1.00
C6       1.22477    1.17307    0.97696   1.00
C6       1.36194    1.13477    1.06368   1.00
H2       1.30791    1.16114    1.07999   1.00
C6       1.34147    1.15097    1.13164   1.00
H2       1.23358    1.12609    1.08095   1.00
C6       1.21634    1.07697    1.11526   1.00
C6       1.24336    1.13911    1.14107   1.00
H2       1.33831    1.04992    1.09012   1.00
C6       1.32772    1.05709    1.15137   1.00
C6       1.28849    1.01556    1.10715   1.00
C6       1.26071    1.09167    0.92469   1.00
C6       1.19225    1.06862    0.91352   1.00
H2       1.21212    1.12656    0.90798   1.00
H2       1.14051    1.10383    0.96957   1.00
C6       1.13378    1.14798    1.01293   1.00
C6       1.13393    1.15889    0.94053   1.00
H2       1.20375    1.19035    0.99353   1.00
C6       1.26336    1.17532    1.00095   1.00
C6       1.23244    1.19624    0.93832   1.00
H2       1.35346    1.13119    1.03316   1.00
H2       1.38090    1.11037    1.07158   1.00
H2       1.37917    1.16157    1.06528   1.00
H2       1.34608    1.18254    1.13120   1.00
H2       1.32178    1.14456    1.15566   1.00
H2       1.36964    1.13782    1.13867   1.00
H2       1.18672    1.08857    1.11787   1.00
H2       1.21532    1.05498    1.09237   1.00
H2       1.22352    1.06271    1.14282   1.00
H2       1.25862    1.16640    1.13504   1.00
H2       1.21308    1.14708    1.14733   1.00
H2       1.25550    1.12601    1.16747   1.00
H2       1.30514    1.06824    1.17090   1.00
H2       1.33708    1.02865    1.16247   1.00
H2       1.35332    1.07566    1.15352   1.00
H2       1.26902    1.01272    1.13220   1.00
H2       1.27068    1.01245    1.08122   1.00
H2       1.30828    0.99051    1.10777   1.00
H2       1.26688    1.06370    0.93846   1.00
H2       1.26809    1.08867    0.89379   1.00
H2       1.28048    1.11333    0.93688   1.00
H2       1.20125    1.06119    0.88380   1.00
H2       1.19574    1.04238    0.93103   1.00
H2       1.16122    1.07553    0.91195   1.00
H2       1.10202    1.14475    1.01239   1.00
H2       1.14435    1.13099    1.03777   1.00
H2       1.14035    1.17865    1.01836   1.00
H2       1.14416    1.14988    0.91176   1.00
H2       1.10212    1.15610    0.94038   1.00
H2       1.14085    1.18973    0.94459   1.00
H2       1.28656    1.15780    0.98803   1.00
H2       1.27381    1.20532    1.00364   1.00
H2       1.25834    1.16462    1.03033   1.00
H2       1.24044    1.22649    0.94464   1.00
H2       1.25622    1.18329    0.92148   1.00
H2       1.20657    1.19728    0.91985   1.00
C4       1.00242    0.72916    0.99815   1.00
C4       1.00170    0.77088    0.99804   1.00
C3       1.01437    0.70636    0.96569   1.00
C3       1.00942    0.79384    0.96441   1.00
C3       0.98999    0.70877    1.03228   1.00
C3       0.99290    0.79114    1.03336   1.00
C2       1.00120    0.64488    1.00003   1.00
C2       0.99880    0.85512    0.99997   1.00
C3       1.01358    0.66538    0.96649   1.00
C3       1.00838    0.83481    0.96542   1.00
C3       0.99010    0.66742    1.03276   1.00
C3       0.99036    0.83238    1.03334   1.00
H1       1.02413    0.71885    0.94055   1.00
H1       1.01579    0.78148    0.93815   1.00
C5       0.97769    0.72980    1.06577   1.00
C5       0.98634    0.77020    1.06841   1.00
H1       1.02229    0.65045    0.94203   1.00
H1       1.01455    0.84990    0.94028   1.00
H1       0.98214    0.65320    1.05782   1.00
H1       0.98159    0.84632    1.05822   1.00
O3       0.95970    0.71039    1.09604   1.00
O3       0.98549    0.78901    1.10409   1.00
Si1      0.91215    0.70753    1.09742   1.00
Si1      1.02657    0.79721    1.12673   1.00
C6       0.90890    0.67462    1.13692   1.00
C6       0.89431    0.75402    1.11035   1.00
C6       0.89169    0.68747    1.05460   1.00
C6       1.07047    0.78307    1.10361   1.00
C6       1.02632    0.84802    1.13324   1.00
C6       1.02304    0.77523    1.17307   1.00
C6       0.93632    0.63806    1.13477   1.00
H2       0.92001    0.69209    1.16114   1.00
C6       0.86836    0.65853    1.15097   1.00
H2       0.91905    0.76642    1.12609   1.00
C6       0.88474    0.78366    1.07697   1.00
C6       0.85893    0.75664    1.13911   1.00
H2       0.90988    0.66169    1.04992   1.00
C6       0.84863    0.67228    1.05709   1.00
C6       0.89285    0.71151    1.01556   1.00
C6       1.07531    0.73929    1.09167   1.00
C6       1.08648    0.80775    1.06862   1.00
H2       1.09202    0.78788    1.12656   1.00
H2       1.03043    0.85949    1.10383   1.00
C6       0.98707    0.86622    1.14798   1.00
C6       1.05947    0.86607    1.15889   1.00
H2       1.00647    0.79625    1.19035   1.00
C6       0.99905    0.73664    1.17532   1.00
C6       1.06168    0.76756    1.19624   1.00
H2       0.96684    0.64654    1.13119   1.00
H2       0.92842    0.61910    1.11037   1.00
H2       0.93472    0.62083    1.16157   1.00
H2       0.86880    0.65392    1.18254   1.00
H2       0.84434    0.67822    1.14456   1.00
H2       0.86133    0.63036    1.13782   1.00
H2       0.88213    0.81328    1.08857   1.00
H2       0.90763    0.78468    1.05498   1.00
H2       0.85718    0.77648    1.06271   1.00
H2       0.86496    0.74138    1.16640   1.00
H2       0.85267    0.78692    1.14708   1.00
H2       0.83253    0.74450    1.12601   1.00
H2       0.82910    0.69486    1.06824   1.00
H2       0.83753    0.66292    1.02865   1.00
H2       0.84648    0.64668    1.07566   1.00
H2       0.86780    0.73098    1.01272   1.00
H2       0.91878    0.72932    1.01245   1.00
H2       0.89223    0.69172    0.99051   1.00
H2       1.06154    0.73312    1.06370   1.00
H2       1.10621    0.73191    1.08867   1.00
H2       1.06312    0.71952    1.11333   1.00
H2       1.11620    0.79875    1.06119   1.00
H2       1.06897    0.80426    1.04238   1.00
H2       1.08805    0.83878    1.07553   1.00
H2       0.98761    0.89798    1.14475   1.00
H2       0.96223    0.85565    1.13099   1.00
H2       0.98164    0.85965    1.17865   1.00
H2       1.08824    0.85584    1.14988   1.00
H2       1.05962    0.89788    1.15610   1.00
H2       1.05541    0.85915    1.18973   1.00
H2       1.01197    0.71344    1.15780   1.00
H2       0.99636    0.72619    1.20532   1.00
H2       0.96967    0.74166    1.16462   1.00
H2       1.05536    0.75956    1.22649   1.00
H2       1.07852    0.74378    1.18329   1.00
H2       1.08015    0.79343    1.19728   1.00
C4       0.99815    1.00242    0.72916   1.00
C4       0.99804    1.00170    0.77088   1.00
C3       0.96569    1.01437    0.70636   1.00
C3       0.96441    1.00942    0.79384   1.00
C3       1.03228    0.98999    0.70877   1.00
C3       1.03336    0.99290    0.79114   1.00
C2       1.00003    1.00120    0.64488   1.00
C2       0.99997    0.99880    0.85512   1.00
C3       0.96649    1.01358    0.66538   1.00
C3       0.96542    1.00838    0.83481   1.00
C3       1.03276    0.99010    0.66742   1.00
C3       1.03334    0.99036    0.83238   1.00
H1       0.94055    1.02413    0.71885   1.00
H1       0.93815    1.01579    0.78148   1.00
C5       1.06577    0.97769    0.72980   1.00
C5       1.06841    0.98634    0.77020   1.00
H1       0.94203    1.02229    0.65045   1.00
H1       0.94028    1.01455    0.84990   1.00
H1       1.05782    0.98214    0.65320   1.00
H1       1.05822    0.98159    0.84632   1.00
O3       1.09604    0.95970    0.71039   1.00
O3       1.10409    0.98549    0.78901   1.00
Si1      1.09742    0.91215    0.70753   1.00
Si1      1.12673    1.02657    0.79721   1.00
C6       1.13692    0.90890    0.67462   1.00
C6       1.11035    0.89431    0.75402   1.00
C6       1.05460    0.89169    0.68747   1.00
C6       1.10361    1.07047    0.78307   1.00
C6       1.13324    1.02632    0.84802   1.00
C6       1.17307    1.02304    0.77523   1.00
C6       1.13477    0.93632    0.63806   1.00
H2       1.16114    0.92001    0.69209   1.00
C6       1.15097    0.86836    0.65853   1.00
H2       1.12609    0.91905    0.76642   1.00
C6       1.07697    0.88474    0.78366   1.00
C6       1.13911    0.85893    0.75664   1.00
H2       1.04992    0.90988    0.66169   1.00
C6       1.05709    0.84863    0.67228   1.00
C6       1.01556    0.89285    0.71151   1.00
C6       1.09167    1.07531    0.73929   1.00
C6       1.06862    1.08648    0.80775   1.00
H2       1.12656    1.09202    0.78788   1.00
H2       1.10383    1.03043    0.85949   1.00
C6       1.14798    0.98707    0.86622   1.00
C6       1.15889    1.05947    0.86607   1.00
H2       1.19035    1.00647    0.79625   1.00
C6       1.17532    0.99905    0.73664   1.00
C6       1.19624    1.06168    0.76756   1.00
H2       1.13119    0.96684    0.64654   1.00
H2       1.11037    0.92842    0.61910   1.00
H2       1.16157    0.93472    0.62083   1.00
H2       1.18254    0.86880    0.65392   1.00
H2       1.14456    0.84434    0.67822   1.00
H2       1.13782    0.86133    0.63036   1.00
H2       1.08857    0.88213    0.81328   1.00
H2       1.05498    0.90763    0.78468   1.00
H2       1.06271    0.85718    0.77648   1.00
H2       1.16640    0.86496    0.74138   1.00
H2       1.14708    0.85267    0.78692   1.00
H2       1.12601    0.83253    0.74450   1.00
H2       1.06824    0.82910    0.69486   1.00
H2       1.02865    0.83753    0.66292   1.00
H2       1.07566    0.84648    0.64668   1.00
H2       1.01272    0.86780    0.73098   1.00
H2       1.01245    0.91878    0.72932   1.00
H2       0.99051    0.89223    0.69172   1.00
H2       1.06370    1.06154    0.73312   1.00
H2       1.08867    1.10621    0.73191   1.00
H2       1.11333    1.06312    0.71952   1.00
H2       1.06119    1.11620    0.79875   1.00
H2       1.04238    1.06897    0.80426   1.00
H2       1.07553    1.08805    0.83878   1.00
H2       1.14475    0.98761    0.89798   1.00
H2       1.13099    0.96223    0.85565   1.00
H2       1.17865    0.98164    0.85965   1.00
H2       1.14988    1.08824    0.85584   1.00
H2       1.15610    1.05962    0.89788   1.00
H2       1.18973    1.05541    0.85915   1.00
H2       1.15780    1.01197    0.71344   1.00
H2       1.20532    0.99636    0.72619   1.00
H2       1.16462    0.96967    0.74166   1.00
H2       1.22649    1.05536    0.75956   1.00
H2       1.18329    1.07852    0.74378   1.00
H2       1.19728    1.08015    0.79343   1.00
C4       0.49815    0.49758    1.27084   1.00
C4       0.49804    0.49830    1.22912   1.00
C3       0.46569    0.48563    1.29364   1.00
C3       0.46441    0.49058    1.20616   1.00
C3       0.53228    0.51001    1.29123   1.00
C3       0.53336    0.50710    1.20886   1.00
C2       0.50003    0.49880    1.35512   1.00
C2       0.49997    0.50120    1.14488   1.00
C3       0.46649    0.48642    1.33462   1.00
C3       0.46542    0.49162    1.16519   1.00
C3       0.53276    0.50990    1.33258   1.00
C3       0.53334    0.50964    1.16762   1.00
H1       0.44055    0.47587    1.28115   1.00
H1       0.43815    0.48421    1.21852   1.00
C5       0.56577    0.52231    1.27020   1.00
C5       0.56841    0.51366    1.22980   1.00
H1       0.44203    0.47771    1.34955   1.00
H1       0.44028    0.48545    1.15010   1.00
H1       0.55782    0.51786    1.34680   1.00
H1       0.55822    0.51841    1.15368   1.00
O3       0.59604    0.54030    1.28961   1.00
O3       0.60409    0.51451    1.21099   1.00
Si1      0.59742    0.58785    1.29247   1.00
Si1      0.62673    0.47343    1.20279   1.00
C6       0.63692    0.59110    1.32538   1.00
C6       0.61035    0.60569    1.24598   1.00
C6       0.55460    0.60831    1.31253   1.00
C6       0.60361    0.42953    1.21693   1.00
C6       0.63324    0.47368    1.15198   1.00
C6       0.67307    0.47696    1.22477   1.00
C6       0.63477    0.56368    1.36194   1.00
H2       0.66114    0.57999    1.30791   1.00
C6       0.65097    0.63164    1.34147   1.00
H2       0.62609    0.58095    1.23358   1.00
C6       0.57697    0.61526    1.21634   1.00
C6       0.63911    0.64107    1.24336   1.00
H2       0.54992    0.59012    1.33831   1.00
C6       0.55709    0.65137    1.32772   1.00
C6       0.51556    0.60715    1.28849   1.00
C6       0.59167    0.42469    1.26071   1.00
C6       0.56862    0.41352    1.19225   1.00
H2       0.62656    0.40798    1.21212   1.00
H2       0.60383    0.46957    1.14051   1.00
C6       0.64798    0.51293    1.13378   1.00
C6       0.65889    0.44053    1.13393   1.00
H2       0.69035    0.49353    1.20375   1.00
C6       0.67532    0.50095    1.26336   1.00
C6       0.69624    0.43832    1.23244   1.00
H2       0.63119    0.53316    1.35346   1.00
H2       0.61037    0.57158    1.38090   1.00
H2       0.66157    0.56528    1.37917   1.00
H2       0.68254    0.63120    1.34608   1.00
H2       0.64456    0.65566    1.32178   1.00
H2       0.63782    0.63867    1.36964   1.00
H2       0.58857    0.61787    1.18672   1.00
H2       0.55498    0.59237    1.21532   1.00
H2       0.56271    0.64282    1.22352   1.00
H2       0.66640    0.63504    1.25862   1.00
H2       0.64708    0.64733    1.21308   1.00
H2       0.62601    0.66747    1.25550   1.00
H2       0.56824    0.67090    1.30514   1.00
H2       0.52865    0.66247    1.33708   1.00
H2       0.57566    0.65352    1.35332   1.00
H2       0.51272    0.63220    1.26902   1.00
H2       0.51245    0.58122    1.27068   1.00
H2       0.49051    0.60777    1.30828   1.00
H2       0.56370    0.43846    1.26688   1.00
H2       0.58867    0.39379    1.26809   1.00
H2       0.61333    0.43688    1.28048   1.00
H2       0.56119    0.38380    1.20125   1.00
H2       0.54238    0.43103    1.19574   1.00
H2       0.57553    0.41195    1.16122   1.00
H2       0.64475    0.51239    1.10202   1.00
H2       0.63099    0.53777    1.14435   1.00
H2       0.67865    0.51836    1.14035   1.00
H2       0.64988    0.41176    1.14416   1.00
H2       0.65610    0.44038    1.10212   1.00
H2       0.68973    0.44459    1.14085   1.00
H2       0.65780    0.48803    1.28656   1.00
H2       0.70532    0.50364    1.27381   1.00
H2       0.66462    0.53033    1.25834   1.00
H2       0.72649    0.44464    1.24044   1.00
H2       0.68329    0.42148    1.25622   1.00
H2       0.69728    0.41985    1.20657   1.00
C4       0.49758    0.77084    0.99815   1.00
C4       0.49830    0.72912    0.99804   1.00
C3       0.48563    0.79364    0.96569   1.00
C3       0.49058    0.70616    0.96441   1.00
C3       0.51001    0.79123    1.03228   1.00
C3       0.50710    0.70886    1.03336   1.00
C2       0.49880    0.85512    1.00003   1.00
C2       0.50120    0.64488    0.99997   1.00
C3       0.48642    0.83462    0.96649   1.00
C3       0.49162    0.66519    0.96542   1.00
C3       0.50990    0.83258    1.03276   1.00
C3       0.50964    0.66762    1.03334   1.00
H1       0.47587    0.78115    0.94055   1.00
H1       0.48421    0.71852    0.93815   1.00
C5       0.52231    0.77020    1.06577   1.00
C5       0.51366    0.72980    1.06841   1.00
H1       0.47771    0.84955    0.94203   1.00
H1       0.48545    0.65010    0.94028   1.00
H1       0.51786    0.84680    1.05782   1.00
H1       0.51841    0.65368    1.05822   1.00
O3       0.54030    0.78961    1.09604   1.00
O3       0.51451    0.71099    1.10409   1.00
Si1      0.58785    0.79247    1.09742   1.00
Si1      0.47343    0.70279    1.12673   1.00
C6       0.59110    0.82538    1.13692   1.00
C6       0.60569    0.74598    1.11035   1.00
C6       0.60831    0.81253    1.05460   1.00
C6       0.42953    0.71693    1.10361   1.00
C6       0.47368    0.65198    1.13324   1.00
C6       0.47696    0.72477    1.17307   1.00
C6       0.56368    0.86194    1.13477   1.00
H2       0.57999    0.80791    1.16114   1.00
C6       0.63164    0.84147    1.15097   1.00
H2       0.58095    0.73358    1.12609   1.00
C6       0.61526    0.71634    1.07697   1.00
C6       0.64107    0.74336    1.13911   1.00
H2       0.59012    0.83831    1.04992   1.00
C6       0.65137    0.82772    1.05709   1.00
C6       0.60715    0.78849    1.01556   1.00
C6       0.42469    0.76071    1.09167   1.00
C6       0.41352    0.69225    1.06862   1.00
H2       0.40798    0.71212    1.12656   1.00
H2       0.46957    0.64051    1.10383   1.00
C6       0.51293    0.63378    1.14798   1.00
C6       0.44053    0.63393    1.15889   1.00
H2       0.49353    0.70375    1.19035   1.00
C6       0.50095    0.76336    1.17532   1.00
C6       0.43832    0.73244    1.19624   1.00
H2       0.53316    0.85346    1.13119   1.00
H2       0.57158    0.88090    1.11037   1.00
H2       0.56528    0.87917    1.16157   1.00
H2       0.63120    0.84608    1.18254   1.00
H2       0.65566    0.82178    1.14456   1.00
H2       0.63867    0.86964    1.13782   1.00
H2       0.61787    0.68672    1.08857   1.00
H2       0.59237    0.71532    1.05498   1.00
H2       0.64282    0.72352    1.06271   1.00
H2       0.63504    0.75862    1.16640   1.00
H2       0.64733    0.71308    1.14708   1.00
H2       0.66747    0.75550    1.12601   1.00
H2       0.67090    0.80514    1.06824   1.00
H2       0.66247    0.83708    1.02865   1.00
H2       0.65352    0.85332    1.07566   1.00
H2       0.63220    0.76902    1.01272   1.00
H2       0.58122    0.77068    1.01245   1.00
H2       0.60777    0.80828    0.99051   1.00
H2       0.43846    0.76688    1.06370   1.00
H2       0.39379    0.76809    1.08867   1.00
H2       0.43688    0.78048    1.11333   1.00
H2       0.38380    0.70125    1.06119   1.00
H2       0.43103    0.69574    1.04238   1.00
H2       0.41195    0.66122    1.07553   1.00
H2       0.51239    0.60202    1.14475   1.00
H2       0.53777    0.64435    1.13099   1.00
H2       0.51836    0.64035    1.17865   1.00
H2       0.41176    0.64416    1.14988   1.00
H2       0.44038    0.60212    1.15610   1.00
H2       0.44459    0.64085    1.18973   1.00
H2       0.48803    0.78656    1.15780   1.00
H2       0.50364    0.77381    1.20532   1.00
H2       0.53033    0.75834    1.16462   1.00
H2       0.44464    0.74044    1.22649   1.00
H2       0.42148    0.75622    1.18329   1.00
H2       0.41985    0.70657    1.19728   1.00
C4       0.22916    0.49815    1.00242   1.00
C4       0.27088    0.49804    1.00170   1.00
C3       0.20636    0.46569    1.01437   1.00
C3       0.29384    0.46441    1.00942   1.00
C3       0.20877    0.53228    0.98999   1.00
C3       0.29114    0.53336    0.99290   1.00
C2       0.14488    0.50003    1.00120   1.00
C2       0.35512    0.49997    0.99880   1.00
C3       0.16538    0.46649    1.01358   1.00
C3       0.33481    0.46542    1.00838   1.00
C3       0.16742    0.53276    0.99010   1.00
C3       0.33238    0.53334    0.99036   1.00
H1       0.21885    0.44055    1.02413   1.00
H1       0.28148    0.43815    1.01579   1.00
C5       0.22980    0.56577    0.97769   1.00
C5       0.27020    0.56841    0.98634   1.00
H1       0.15045    0.44203    1.02229   1.00
H1       0.34990    0.44028    1.01455   1.00
H1       0.15320    0.55782    0.98214   1.00
H1       0.34632    0.55822    0.98159   1.00
O3       0.21039    0.59604    0.95970   1.00
O3       0.28901    0.60409    0.98549   1.00
Si1      0.20753    0.59742    0.91215   1.00
Si1      0.29721    0.62673    1.02657   1.00
C6       0.17462    0.63692    0.90890   1.00
C6       0.25402    0.61035    0.89431   1.00
C6       0.18747    0.55460    0.89169   1.00
C6       0.28307    0.60361    1.07047   1.00
C6       0.34802    0.63324    1.02632   1.00
C6       0.27523    0.67307    1.02304   1.00
C6       0.13806    0.63477    0.93632   1.00
H2       0.19209    0.66114    0.92001   1.00
C6       0.15853    0.65097    0.86836   1.00
H2       0.26642    0.62609    0.91905   1.00
C6       0.28366    0.57697    0.88474   1.00
C6       0.25664    0.63911    0.85893   1.00
H2       0.16169    0.54992    0.90988   1.00
C6       0.17228    0.55709    0.84863   1.00
C6       0.21151    0.51556    0.89285   1.00
C6       0.23929    0.59167    1.07531   1.00
C6       0.30775    0.56862    1.08648   1.00
H2       0.28788    0.62656    1.09202   1.00
H2       0.35949    0.60383    1.03043   1.00
C6       0.36622    0.64798    0.98707   1.00
C6       0.36607    0.65889    1.05947   1.00
H2       0.29625    0.69035    1.00647   1.00
C6       0.23664    0.67532    0.99905   1.00
C6       0.26756    0.69624    1.06168   1.00
H2       0.14654    0.63119    0.96684   1.00
H2       0.11910    0.61037    0.92842   1.00
H2       0.12083    0.66157    0.93472   1.00
H2       0.15392    0.68254    0.86880   1.00
H2       0.17822    0.64456    0.84434   1.00
H2       0.13036    0.63782    0.86133   1.00
H2       0.31328    0.58857    0.88213   1.00
H2       0.28468    0.55498    0.90763   1.00
H2       0.27648    0.56271    0.85718   1.00
H2       0.24138    0.66640    0.86496   1.00
H2       0.28692    0.64708    0.85267   1.00
H2       0.24450    0.62601    0.83253   1.00
H2       0.19486    0.56824    0.82910   1.00
H2       0.16292    0.52865    0.83753   1.00
H2       0.14668    0.57566    0.84648   1.00
H2       0.23098    0.51272    0.86780   1.00
H2       0.22932    0.51245    0.91878   1.00
H2       0.19172    0.49051    0.89223   1.00
H2       0.23312    0.56370    1.06154   1.00
H2       0.23191    0.58867    1.10621   1.00
H2       0.21952    0.61333    1.06312   1.00
H2       0.29875    0.56119    1.11620   1.00
H2       0.30426    0.54238    1.06897   1.00
H2       0.33878    0.57553    1.08805   1.00
H2       0.39798    0.64475    0.98761   1.00
H2       0.35565    0.63099    0.96223   1.00
H2       0.35965    0.67865    0.98164   1.00
H2       0.35584    0.64988    1.08824   1.00
H2       0.39788    0.65610    1.05962   1.00
H2       0.35915    0.68973    1.05541   1.00
H2       0.21344    0.65780    1.01197   1.00
H2       0.22619    0.70532    0.99636   1.00
H2       0.24166    0.66462    0.96967   1.00
H2       0.25956    0.72649    1.05536   1.00
H2       0.24378    0.68329    1.07852   1.00
H2       0.29343    0.69728    1.08015   1.00
C4       0.77084    0.49815    0.99758   1.00
C4       0.72912    0.49804    0.99830   1.00
C3       0.79364    0.46569    0.98563   1.00
C3       0.70616    0.46441    0.99058   1.00
C3       0.79123    0.53228    1.01001   1.00
C3       0.70886    0.53336    1.00710   1.00
C2       0.85512    0.50003    0.99880   1.00
C2       0.64488    0.49997    1.00120   1.00
C3       0.83462    0.46649    0.98642   1.00
C3       0.66519    0.46542    0.99162   1.00
C3       0.83258    0.53276    1.00990   1.00
C3       0.66762    0.53334    1.00964   1.00
H1       0.78115    0.44055    0.97587   1.00
H1       0.71852    0.43815    0.98421   1.00
C5       0.77020    0.56577    1.02231   1.00
C5       0.72980    0.56841    1.01366   1.00
H1       0.84955    0.44203    0.97771   1.00
H1       0.65010    0.44028    0.98545   1.00
H1       0.84680    0.55782    1.01786   1.00
H1       0.65368    0.55822    1.01841   1.00
O3       0.78961    0.59604    1.04030   1.00
O3       0.71099    0.60409    1.01451   1.00
Si1      0.79247    0.59742    1.08785   1.00
Si1      0.70279    0.62673    0.97343   1.00
C6       0.82538    0.63692    1.09110   1.00
C6       0.74598    0.61035    1.10569   1.00
C6       0.81253    0.55460    1.10831   1.00
C6       0.71693    0.60361    0.92953   1.00
C6       0.65198    0.63324    0.97368   1.00
C6       0.72477    0.67307    0.97696   1.00
C6       0.86194    0.63477    1.06368   1.00
H2       0.80791    0.66114    1.07999   1.00
C6       0.84147    0.65097    1.13164   1.00
H2       0.73358    0.62609    1.08095   1.00
C6       0.71634    0.57697    1.11526   1.00
C6       0.74336    0.63911    1.14107   1.00
H2       0.83831    0.54992    1.09012   1.00
C6       0.82772    0.55709    1.15137   1.00
C6       0.78849    0.51556    1.10715   1.00
C6       0.76071    0.59167    0.92469   1.00
C6       0.69225    0.56862    0.91352   1.00
H2       0.71212    0.62656    0.90798   1.00
H2       0.64051    0.60383    0.96957   1.00
C6       0.63378    0.64798    1.01293   1.00
C6       0.63393    0.65889    0.94053   1.00
H2       0.70375    0.69035    0.99353   1.00
C6       0.76336    0.67532    1.00095   1.00
C6       0.73244    0.69624    0.93832   1.00
H2       0.85346    0.63119    1.03316   1.00
H2       0.88090    0.61037    1.07158   1.00
H2       0.87917    0.66157    1.06528   1.00
H2       0.84608    0.68254    1.13120   1.00
H2       0.82178    0.64456    1.15566   1.00
H2       0.86964    0.63782    1.13867   1.00
H2       0.68672    0.58857    1.11787   1.00
H2       0.71532    0.55498    1.09237   1.00
H2       0.72352    0.56271    1.14282   1.00
H2       0.75862    0.66640    1.13504   1.00
H2       0.71308    0.64708    1.14733   1.00
H2       0.75550    0.62601    1.16747   1.00
H2       0.80514    0.56824    1.17090   1.00
H2       0.83708    0.52865    1.16247   1.00
H2       0.85332    0.57566    1.15352   1.00
H2       0.76902    0.51272    1.13220   1.00
H2       0.77068    0.51245    1.08122   1.00
H2       0.80828    0.49051    1.10777   1.00
H2       0.76688    0.56370    0.93846   1.00
H2       0.76809    0.58867    0.89379   1.00
H2       0.78048    0.61333    0.93688   1.00
H2       0.70125    0.56119    0.88380   1.00
H2       0.69574    0.54238    0.93103   1.00
H2       0.66122    0.57553    0.91195   1.00
H2       0.60202    0.64475    1.01239   1.00
H2       0.64435    0.63099    1.03777   1.00
H2       0.64035    0.67865    1.01836   1.00
H2       0.64416    0.64988    0.91176   1.00
H2       0.60212    0.65610    0.94038   1.00
H2       0.64085    0.68973    0.94459   1.00
H2       0.78656    0.65780    0.98803   1.00
H2       0.77381    0.70532    1.00364   1.00
H2       0.75834    0.66462    1.03033   1.00
H2       0.74044    0.72649    0.94464   1.00
H2       0.75622    0.68329    0.92148   1.00
H2       0.70657    0.69728    0.91985   1.00
C4       0.50242    0.22916    0.99815   1.00
C4       0.50170    0.27088    0.99804   1.00
C3       0.51437    0.20636    0.96569   1.00
C3       0.50942    0.29384    0.96441   1.00
C3       0.48999    0.20877    1.03228   1.00
C3       0.49290    0.29114    1.03336   1.00
C2       0.50120    0.14488    1.00003   1.00
C2       0.49880    0.35512    0.99997   1.00
C3       0.51358    0.16538    0.96649   1.00
C3       0.50838    0.33481    0.96542   1.00
C3       0.49010    0.16742    1.03276   1.00
C3       0.49036    0.33238    1.03334   1.00
H1       0.52413    0.21885    0.94055   1.00
H1       0.51579    0.28148    0.93815   1.00
C5       0.47769    0.22980    1.06577   1.00
C5       0.48634    0.27020    1.06841   1.00
H1       0.52229    0.15045    0.94203   1.00
H1       0.51455    0.34990    0.94028   1.00
H1       0.48214    0.15320    1.05782   1.00
H1       0.48159    0.34632    1.05822   1.00
O3       0.45970    0.21039    1.09604   1.00
O3       0.48549    0.28901    1.10409   1.00
Si1      0.41215    0.20753    1.09742   1.00
Si1      0.52657    0.29721    1.12673   1.00
C6       0.40890    0.17462    1.13692   1.00
C6       0.39431    0.25402    1.11035   1.00
C6       0.39169    0.18747    1.05460   1.00
C6       0.57047    0.28307    1.10361   1.00
C6       0.52632    0.34802    1.13324   1.00
C6       0.52304    0.27523    1.17307   1.00
C6       0.43632    0.13806    1.13477   1.00
H2       0.42001    0.19209    1.16114   1.00
C6       0.36836    0.15853    1.15097   1.00
H2       0.41905    0.26642    1.12609   1.00
C6       0.38474    0.28366    1.07697   1.00
C6       0.35893    0.25664    1.13911   1.00
H2       0.40988    0.16169    1.04992   1.00
C6       0.34863    0.17228    1.05709   1.00
C6       0.39285    0.21151    1.01556   1.00
C6       0.57531    0.23929    1.09167   1.00
C6       0.58648    0.30775    1.06862   1.00
H2       0.59202    0.28788    1.12656   1.00
H2       0.53043    0.35949    1.10383   1.00
C6       0.48707    0.36622    1.14798   1.00
C6       0.55947    0.36607    1.15889   1.00
H2       0.50647    0.29625    1.19035   1.00
C6       0.49905    0.23664    1.17532   1.00
C6       0.56168    0.26756    1.19624   1.00
H2       0.46684    0.14654    1.13119   1.00
H2       0.42842    0.11910    1.11037   1.00
H2       0.43472    0.12083    1.16157   1.00
H2       0.36880    0.15392    1.18254   1.00
H2       0.34434    0.17822    1.14456   1.00
H2       0.36133    0.13036    1.13782   1.00
H2       0.38213    0.31328    1.08857   1.00
H2       0.40763    0.28468    1.05498   1.00
H2       0.35718    0.27648    1.06271   1.00
H2       0.36496    0.24138    1.16640   1.00
H2       0.35267    0.28692    1.14708   1.00
H2       0.33253    0.24450    1.12601   1.00
H2       0.32910    0.19486    1.06824   1.00
H2       0.33753    0.16292    1.02865   1.00
H2       0.34648    0.14668    1.07566   1.00
H2       0.36780    0.23098    1.01272   1.00
H2       0.41878    0.22932    1.01245   1.00
H2       0.39223    0.19172    0.99051   1.00
H2       0.56154    0.23312    1.06370   1.00
H2       0.60621    0.23191    1.08867   1.00
H2       0.56312    0.21952    1.11333   1.00
H2       0.61620    0.29875    1.06119   1.00
H2       0.56897    0.30426    1.04238   1.00
H2       0.58805    0.33878    1.07553   1.00
H2       0.48761    0.39798    1.14475   1.00
H2       0.46223    0.35565    1.13099   1.00
H2       0.48164    0.35965    1.17865   1.00
H2       0.58824    0.35584    1.14988   1.00
H2       0.55962    0.39788    1.15610   1.00
H2       0.55541    0.35915    1.18973   1.00
H2       0.51197    0.21344    1.15780   1.00
H2       0.49636    0.22619    1.20532   1.00
H2       0.46967    0.24166    1.16462   1.00
H2       0.55536    0.25956    1.22649   1.00
H2       0.57852    0.24378    1.18329   1.00
H2       0.58015    0.29343    1.19728   1.00
C4       0.49815    0.50242    0.72916   1.00
C4       0.49804    0.50170    0.77088   1.00
C3       0.46569    0.51437    0.70636   1.00
C3       0.46441    0.50942    0.79384   1.00
C3       0.53228    0.48999    0.70877   1.00
C3       0.53336    0.49290    0.79114   1.00
C2       0.50003    0.50120    0.64488   1.00
C2       0.49997    0.49880    0.85512   1.00
C3       0.46649    0.51358    0.66538   1.00
C3       0.46542    0.50838    0.83481   1.00
C3       0.53276    0.49010    0.66742   1.00
C3       0.53334    0.49036    0.83238   1.00
H1       0.44055    0.52413    0.71885   1.00
H1       0.43815    0.51579    0.78148   1.00
C5       0.56577    0.47769    0.72980   1.00
C5       0.56841    0.48634    0.77020   1.00
H1       0.44203    0.52229    0.65045   1.00
H1       0.44028    0.51455    0.84990   1.00
H1       0.55782    0.48214    0.65320   1.00
H1       0.55822    0.48159    0.84632   1.00
O3       0.59604    0.45970    0.71039   1.00
O3       0.60409    0.48549    0.78901   1.00
Si1      0.59742    0.41215    0.70753   1.00
Si1      0.62673    0.52657    0.79721   1.00
C6       0.63692    0.40890    0.67462   1.00
C6       0.61035    0.39431    0.75402   1.00
C6       0.55460    0.39169    0.68747   1.00
C6       0.60361    0.57047    0.78307   1.00
C6       0.63324    0.52632    0.84802   1.00
C6       0.67307    0.52304    0.77523   1.00
C6       0.63477    0.43632    0.63806   1.00
H2       0.66114    0.42001    0.69209   1.00
C6       0.65097    0.36836    0.65853   1.00
H2       0.62609    0.41905    0.76642   1.00
C6       0.57697    0.38474    0.78366   1.00
C6       0.63911    0.35893    0.75664   1.00
H2       0.54992    0.40988    0.66169   1.00
C6       0.55709    0.34863    0.67228   1.00
C6       0.51556    0.39285    0.71151   1.00
C6       0.59167    0.57531    0.73929   1.00
C6       0.56862    0.58648    0.80775   1.00
H2       0.62656    0.59202    0.78788   1.00
H2       0.60383    0.53043    0.85949   1.00
C6       0.64798    0.48707    0.86622   1.00
C6       0.65889    0.55947    0.86607   1.00
H2       0.69035    0.50647    0.79625   1.00
C6       0.67532    0.49905    0.73664   1.00
C6       0.69624    0.56168    0.76756   1.00
H2       0.63119    0.46684    0.64654   1.00
H2       0.61037    0.42842    0.61910   1.00
H2       0.66157    0.43472    0.62083   1.00
H2       0.68254    0.36880    0.65392   1.00
H2       0.64456    0.34434    0.67822   1.00
H2       0.63782    0.36133    0.63036   1.00
H2       0.58857    0.38213    0.81328   1.00
H2       0.55498    0.40763    0.78468   1.00
H2       0.56271    0.35718    0.77648   1.00
H2       0.66640    0.36496    0.74138   1.00
H2       0.64708    0.35267    0.78692   1.00
H2       0.62601    0.33253    0.74450   1.00
H2       0.56824    0.32910    0.69486   1.00
H2       0.52865    0.33753    0.66292   1.00
H2       0.57566    0.34648    0.64668   1.00
H2       0.51272    0.36780    0.73098   1.00
H2       0.51245    0.41878    0.72932   1.00
H2       0.49051    0.39223    0.69172   1.00
H2       0.56370    0.56154    0.73312   1.00
H2       0.58867    0.60621    0.73191   1.00
H2       0.61333    0.56312    0.71952   1.00
H2       0.56119    0.61620    0.79875   1.00
H2       0.54238    0.56897    0.80426   1.00
H2       0.57553    0.58805    0.83878   1.00
H2       0.64475    0.48761    0.89798   1.00
H2       0.63099    0.46223    0.85565   1.00
H2       0.67865    0.48164    0.85965   1.00
H2       0.64988    0.58824    0.85584   1.00
H2       0.65610    0.55962    0.89788   1.00
H2       0.68973    0.55541    0.85915   1.00
H2       0.65780    0.51197    0.71344   1.00
H2       0.70532    0.49636    0.72619   1.00
H2       0.66462    0.46967    0.74166   1.00
H2       0.72649    0.55536    0.75956   1.00
H2       0.68329    0.57852    0.74378   1.00
H2       0.69728    0.58015    0.79343   1.00
C4       0.49815    0.99758    0.77084   1.00
C4       0.49804    0.99830    0.72912   1.00
C3       0.46569    0.98563    0.79364   1.00
C3       0.46441    0.99058    0.70616   1.00
C3       0.53228    1.01001    0.79123   1.00
C3       0.53336    1.00710    0.70886   1.00
C2       0.50003    0.99880    0.85512   1.00
C2       0.49997    1.00120    0.64488   1.00
C3       0.46649    0.98642    0.83462   1.00
C3       0.46542    0.99162    0.66519   1.00
C3       0.53276    1.00990    0.83258   1.00
C3       0.53334    1.00964    0.66762   1.00
H1       0.44055    0.97587    0.78115   1.00
H1       0.43815    0.98421    0.71852   1.00
C5       0.56577    1.02231    0.77020   1.00
C5       0.56841    1.01366    0.72980   1.00
H1       0.44203    0.97771    0.84955   1.00
H1       0.44028    0.98545    0.65010   1.00
H1       0.55782    1.01786    0.84680   1.00
H1       0.55822    1.01841    0.65368   1.00
O3       0.59604    1.04030    0.78961   1.00
O3       0.60409    1.01451    0.71099   1.00
Si1      0.59742    1.08785    0.79247   1.00
Si1      0.62673    0.97343    0.70279   1.00
C6       0.63692    1.09110    0.82538   1.00
C6       0.61035    1.10569    0.74598   1.00
C6       0.55460    1.10831    0.81253   1.00
C6       0.60361    0.92953    0.71693   1.00
C6       0.63324    0.97368    0.65198   1.00
C6       0.67307    0.97696    0.72477   1.00
C6       0.63477    1.06368    0.86194   1.00
H2       0.66114    1.07999    0.80791   1.00
C6       0.65097    1.13164    0.84147   1.00
H2       0.62609    1.08095    0.73358   1.00
C6       0.57697    1.11526    0.71634   1.00
C6       0.63911    1.14107    0.74336   1.00
H2       0.54992    1.09012    0.83831   1.00
C6       0.55709    1.15137    0.82772   1.00
C6       0.51556    1.10715    0.78849   1.00
C6       0.59167    0.92469    0.76071   1.00
C6       0.56862    0.91352    0.69225   1.00
H2       0.62656    0.90798    0.71212   1.00
H2       0.60383    0.96957    0.64051   1.00
C6       0.64798    1.01293    0.63378   1.00
C6       0.65889    0.94053    0.63393   1.00
H2       0.69035    0.99353    0.70375   1.00
C6       0.67532    1.00095    0.76336   1.00
C6       0.69624    0.93832    0.73244   1.00
H2       0.63119    1.03316    0.85346   1.00
H2       0.61037    1.07158    0.88090   1.00
H2       0.66157    1.06528    0.87917   1.00
H2       0.68254    1.13120    0.84608   1.00
H2       0.64456    1.15566    0.82178   1.00
H2       0.63782    1.13867    0.86964   1.00
H2       0.58857    1.11787    0.68672   1.00
H2       0.55498    1.09237    0.71532   1.00
H2       0.56271    1.14282    0.72352   1.00
H2       0.66640    1.13504    0.75862   1.00
H2       0.64708    1.14733    0.71308   1.00
H2       0.62601    1.16747    0.75550   1.00
H2       0.56824    1.17090    0.80514   1.00
H2       0.52865    1.16247    0.83708   1.00
H2       0.57566    1.15352    0.85332   1.00
H2       0.51272    1.13220    0.76902   1.00
H2       0.51245    1.08122    0.77068   1.00
H2       0.49051    1.10777    0.80828   1.00
H2       0.56370    0.93846    0.76688   1.00
H2       0.58867    0.89379    0.76809   1.00
H2       0.61333    0.93688    0.78048   1.00
H2       0.56119    0.88380    0.70125   1.00
H2       0.54238    0.93103    0.69574   1.00
H2       0.57553    0.91195    0.66122   1.00
H2       0.64475    1.01239    0.60202   1.00
H2       0.63099    1.03777    0.64435   1.00
H2       0.67865    1.01836    0.64035   1.00
H2       0.64988    0.91176    0.64416   1.00
H2       0.65610    0.94038    0.60212   1.00
H2       0.68973    0.94459    0.64085   1.00
H2       0.65780    0.98803    0.78656   1.00
H2       0.70532    1.00364    0.77381   1.00
H2       0.66462    1.03033    0.75834   1.00
H2       0.72649    0.94464    0.74044   1.00
H2       0.68329    0.92148    0.75622   1.00
H2       0.69728    0.91985    0.70657   1.00
C4       0.49758    1.27084    0.49815   1.00
C4       0.49830    1.22912    0.49804   1.00
C3       0.48563    1.29364    0.46569   1.00
C3       0.49058    1.20616    0.46441   1.00
C3       0.51001    1.29123    0.53228   1.00
C3       0.50710    1.20886    0.53336   1.00
C2       0.49880    1.35512    0.50003   1.00
C2       0.50120    1.14488    0.49997   1.00
C3       0.48642    1.33462    0.46649   1.00
C3       0.49162    1.16519    0.46542   1.00
C3       0.50990    1.33258    0.53276   1.00
C3       0.50964    1.16762    0.53334   1.00
H1       0.47587    1.28115    0.44055   1.00
H1       0.48421    1.21852    0.43815   1.00
C5       0.52231    1.27020    0.56577   1.00
C5       0.51366    1.22980    0.56841   1.00
H1       0.47771    1.34955    0.44203   1.00
H1       0.48545    1.15010    0.44028   1.00
H1       0.51786    1.34680    0.55782   1.00
H1       0.51841    1.15368    0.55822   1.00
O3       0.54030    1.28961    0.59604   1.00
O3       0.51451    1.21099    0.60409   1.00
Si1      0.58785    1.29247    0.59742   1.00
Si1      0.47343    1.20279    0.62673   1.00
C6       0.59110    1.32538    0.63692   1.00
C6       0.60569    1.24598    0.61035   1.00
C6       0.60831    1.31253    0.55460   1.00
C6       0.42953    1.21693    0.60361   1.00
C6       0.47368    1.15198    0.63324   1.00
C6       0.47696    1.22477    0.67307   1.00
C6       0.56368    1.36194    0.63477   1.00
H2       0.57999    1.30791    0.66114   1.00
C6       0.63164    1.34147    0.65097   1.00
H2       0.58095    1.23358    0.62609   1.00
C6       0.61526    1.21634    0.57697   1.00
C6       0.64107    1.24336    0.63911   1.00
H2       0.59012    1.33831    0.54992   1.00
C6       0.65137    1.32772    0.55709   1.00
C6       0.60715    1.28849    0.51556   1.00
C6       0.42469    1.26071    0.59167   1.00
C6       0.41352    1.19225    0.56862   1.00
H2       0.40798    1.21212    0.62656   1.00
H2       0.46957    1.14051    0.60383   1.00
C6       0.51293    1.13378    0.64798   1.00
C6       0.44053    1.13393    0.65889   1.00
H2       0.49353    1.20375    0.69035   1.00
C6       0.50095    1.26336    0.67532   1.00
C6       0.43832    1.23244    0.69624   1.00
H2       0.53316    1.35346    0.63119   1.00
H2       0.57158    1.38090    0.61037   1.00
H2       0.56528    1.37917    0.66157   1.00
H2       0.63120    1.34608    0.68254   1.00
H2       0.65566    1.32178    0.64456   1.00
H2       0.63867    1.36964    0.63782   1.00
H2       0.61787    1.18672    0.58857   1.00
H2       0.59237    1.21532    0.55498   1.00
H2       0.64282    1.22352    0.56271   1.00
H2       0.63504    1.25862    0.66640   1.00
H2       0.64733    1.21308    0.64708   1.00
H2       0.66747    1.25550    0.62601   1.00
H2       0.67090    1.30514    0.56824   1.00
H2       0.66247    1.33708    0.52865   1.00
H2       0.65352    1.35332    0.57566   1.00
H2       0.63220    1.26902    0.51272   1.00
H2       0.58122    1.27068    0.51245   1.00
H2       0.60777    1.30828    0.49051   1.00
H2       0.43846    1.26688    0.56370   1.00
H2       0.39379    1.26809    0.58867   1.00
H2       0.43688    1.28048    0.61333   1.00
H2       0.38380    1.20125    0.56119   1.00
H2       0.43103    1.19574    0.54238   1.00
H2       0.41195    1.16122    0.57553   1.00
H2       0.51239    1.10202    0.64475   1.00
H2       0.53777    1.14435    0.63099   1.00
H2       0.51836    1.14035    0.67865   1.00
H2       0.41176    1.14416    0.64988   1.00
H2       0.44038    1.10212    0.65610   1.00
H2       0.44459    1.14085    0.68973   1.00
H2       0.48803    1.28656    0.65780   1.00
H2       0.50364    1.27381    0.70532   1.00
H2       0.53033    1.25834    0.66462   1.00
H2       0.44464    1.24044    0.72649   1.00
H2       0.42148    1.25622    0.68329   1.00
H2       0.41985    1.20657    0.69728   1.00
C4       0.22916    0.99815    0.50242   1.00
C4       0.27088    0.99804    0.50170   1.00
C3       0.20636    0.96569    0.51437   1.00
C3       0.29384    0.96441    0.50942   1.00
C3       0.20877    1.03228    0.48999   1.00
C3       0.29114    1.03336    0.49290   1.00
C2       0.14488    1.00003    0.50120   1.00
C2       0.35512    0.99997    0.49880   1.00
C3       0.16538    0.96649    0.51358   1.00
C3       0.33481    0.96542    0.50838   1.00
C3       0.16742    1.03276    0.49010   1.00
C3       0.33238    1.03334    0.49036   1.00
H1       0.21885    0.94055    0.52413   1.00
H1       0.28148    0.93815    0.51579   1.00
C5       0.22980    1.06577    0.47769   1.00
C5       0.27020    1.06841    0.48634   1.00
H1       0.15045    0.94203    0.52229   1.00
H1       0.34990    0.94028    0.51455   1.00
H1       0.15320    1.05782    0.48214   1.00
H1       0.34632    1.05822    0.48159   1.00
O3       0.21039    1.09604    0.45970   1.00
O3       0.28901    1.10409    0.48549   1.00
Si1      0.20753    1.09742    0.41215   1.00
Si1      0.29721    1.12673    0.52657   1.00
C6       0.17462    1.13692    0.40890   1.00
C6       0.25402    1.11035    0.39431   1.00
C6       0.18747    1.05460    0.39169   1.00
C6       0.28307    1.10361    0.57047   1.00
C6       0.34802    1.13324    0.52632   1.00
C6       0.27523    1.17307    0.52304   1.00
C6       0.13806    1.13477    0.43632   1.00
H2       0.19209    1.16114    0.42001   1.00
C6       0.15853    1.15097    0.36836   1.00
H2       0.26642    1.12609    0.41905   1.00
C6       0.28366    1.07697    0.38474   1.00
C6       0.25664    1.13911    0.35893   1.00
H2       0.16169    1.04992    0.40988   1.00
C6       0.17228    1.05709    0.34863   1.00
C6       0.21151    1.01556    0.39285   1.00
C6       0.23929    1.09167    0.57531   1.00
C6       0.30775    1.06862    0.58648   1.00
H2       0.28788    1.12656    0.59202   1.00
H2       0.35949    1.10383    0.53043   1.00
C6       0.36622    1.14798    0.48707   1.00
C6       0.36607    1.15889    0.55947   1.00
H2       0.29625    1.19035    0.50647   1.00
C6       0.23664    1.17532    0.49905   1.00
C6       0.26756    1.19624    0.56168   1.00
H2       0.14654    1.13119    0.46684   1.00
H2       0.11910    1.11037    0.42842   1.00
H2       0.12083    1.16157    0.43472   1.00
H2       0.15392    1.18254    0.36880   1.00
H2       0.17822    1.14456    0.34434   1.00
H2       0.13036    1.13782    0.36133   1.00
H2       0.31328    1.08857    0.38213   1.00
H2       0.28468    1.05498    0.40763   1.00
H2       0.27648    1.06271    0.35718   1.00
H2       0.24138    1.16640    0.36496   1.00
H2       0.28692    1.14708    0.35267   1.00
H2       0.24450    1.12601    0.33253   1.00
H2       0.19486    1.06824    0.32910   1.00
H2       0.16292    1.02865    0.33753   1.00
H2       0.14668    1.07566    0.34648   1.00
H2       0.23098    1.01272    0.36780   1.00
H2       0.22932    1.01245    0.41878   1.00
H2       0.19172    0.99051    0.39223   1.00
H2       0.23312    1.06370    0.56154   1.00
H2       0.23191    1.08867    0.60621   1.00
H2       0.21952    1.11333    0.56312   1.00
H2       0.29875    1.06119    0.61620   1.00
H2       0.30426    1.04238    0.56897   1.00
H2       0.33878    1.07553    0.58805   1.00
H2       0.39798    1.14475    0.48761   1.00
H2       0.35565    1.13099    0.46223   1.00
H2       0.35965    1.17865    0.48164   1.00
H2       0.35584    1.14988    0.58824   1.00
H2       0.39788    1.15610    0.55962   1.00
H2       0.35915    1.18973    0.55541   1.00
H2       0.21344    1.15780    0.51197   1.00
H2       0.22619    1.20532    0.49636   1.00
H2       0.24166    1.16462    0.46967   1.00
H2       0.25956    1.22649    0.55536   1.00
H2       0.24378    1.18329    0.57852   1.00
H2       0.29343    1.19728    0.58015   1.00
C4       0.77084    0.99815    0.49758   1.00
C4       0.72912    0.99804    0.49830   1.00
C3       0.79364    0.96569    0.48563   1.00
C3       0.70616    0.96441    0.49058   1.00
C3       0.79123    1.03228    0.51001   1.00
C3       0.70886    1.03336    0.50710   1.00
C2       0.85512    1.00003    0.49880   1.00
C2       0.64488    0.99997    0.50120   1.00
C3       0.83462    0.96649    0.48642   1.00
C3       0.66519    0.96542    0.49162   1.00
C3       0.83258    1.03276    0.50990   1.00
C3       0.66762    1.03334    0.50964   1.00
H1       0.78115    0.94055    0.47587   1.00
H1       0.71852    0.93815    0.48421   1.00
C5       0.77020    1.06577    0.52231   1.00
C5       0.72980    1.06841    0.51366   1.00
H1       0.84955    0.94203    0.47771   1.00
H1       0.65010    0.94028    0.48545   1.00
H1       0.84680    1.05782    0.51786   1.00
H1       0.65368    1.05822    0.51841   1.00
O3       0.78961    1.09604    0.54030   1.00
O3       0.71099    1.10409    0.51451   1.00
Si1      0.79247    1.09742    0.58785   1.00
Si1      0.70279    1.12673    0.47343   1.00
C6       0.82538    1.13692    0.59110   1.00
C6       0.74598    1.11035    0.60569   1.00
C6       0.81253    1.05460    0.60831   1.00
C6       0.71693    1.10361    0.42953   1.00
C6       0.65198    1.13324    0.47368   1.00
C6       0.72477    1.17307    0.47696   1.00
C6       0.86194    1.13477    0.56368   1.00
H2       0.80791    1.16114    0.57999   1.00
C6       0.84147    1.15097    0.63164   1.00
H2       0.73358    1.12609    0.58095   1.00
C6       0.71634    1.07697    0.61526   1.00
C6       0.74336    1.13911    0.64107   1.00
H2       0.83831    1.04992    0.59012   1.00
C6       0.82772    1.05709    0.65137   1.00
C6       0.78849    1.01556    0.60715   1.00
C6       0.76071    1.09167    0.42469   1.00
C6       0.69225    1.06862    0.41352   1.00
H2       0.71212    1.12656    0.40798   1.00
H2       0.64051    1.10383    0.46957   1.00
C6       0.63378    1.14798    0.51293   1.00
C6       0.63393    1.15889    0.44053   1.00
H2       0.70375    1.19035    0.49353   1.00
C6       0.76336    1.17532    0.50095   1.00
C6       0.73244    1.19624    0.43832   1.00
H2       0.85346    1.13119    0.53316   1.00
H2       0.88090    1.11037    0.57158   1.00
H2       0.87917    1.16157    0.56528   1.00
H2       0.84608    1.18254    0.63120   1.00
H2       0.82178    1.14456    0.65566   1.00
H2       0.86964    1.13782    0.63867   1.00
H2       0.68672    1.08857    0.61787   1.00
H2       0.71532    1.05498    0.59237   1.00
H2       0.72352    1.06271    0.64282   1.00
H2       0.75862    1.16640    0.63504   1.00
H2       0.71308    1.14708    0.64733   1.00
H2       0.75550    1.12601    0.66747   1.00
H2       0.80514    1.06824    0.67090   1.00
H2       0.83708    1.02865    0.66247   1.00
H2       0.85332    1.07566    0.65352   1.00
H2       0.76902    1.01272    0.63220   1.00
H2       0.77068    1.01245    0.58122   1.00
H2       0.80828    0.99051    0.60777   1.00
H2       0.76688    1.06370    0.43846   1.00
H2       0.76809    1.08867    0.39379   1.00
H2       0.78048    1.11333    0.43688   1.00
H2       0.70125    1.06119    0.38380   1.00
H2       0.69574    1.04238    0.43103   1.00
H2       0.66122    1.07553    0.41195   1.00
H2       0.60202    1.14475    0.51239   1.00
H2       0.64435    1.13099    0.53777   1.00
H2       0.64035    1.17865    0.51836   1.00
H2       0.64416    1.14988    0.41176   1.00
H2       0.60212    1.15610    0.44038   1.00
H2       0.64085    1.18973    0.44459   1.00
H2       0.78656    1.15780    0.48803   1.00
H2       0.77381    1.20532    0.50364   1.00
H2       0.75834    1.16462    0.53033   1.00
H2       0.74044    1.22649    0.44464   1.00
H2       0.75622    1.18329    0.42148   1.00
H2       0.70657    1.19728    0.41985   1.00
C4       0.50242    0.72916    0.49815   1.00
C4       0.50170    0.77088    0.49804   1.00
C3       0.51437    0.70636    0.46569   1.00
C3       0.50942    0.79384    0.46441   1.00
C3       0.48999    0.70877    0.53228   1.00
C3       0.49290    0.79114    0.53336   1.00
C2       0.50120    0.64488    0.50003   1.00
C2       0.49880    0.85512    0.49997   1.00
C3       0.51358    0.66538    0.46649   1.00
C3       0.50838    0.83481    0.46542   1.00
C3       0.49010    0.66742    0.53276   1.00
C3       0.49036    0.83238    0.53334   1.00
H1       0.52413    0.71885    0.44055   1.00
H1       0.51579    0.78148    0.43815   1.00
C5       0.47769    0.72980    0.56577   1.00
C5       0.48634    0.77020    0.56841   1.00
H1       0.52229    0.65045    0.44203   1.00
H1       0.51455    0.84990    0.44028   1.00
H1       0.48214    0.65320    0.55782   1.00
H1       0.48159    0.84632    0.55822   1.00
O3       0.45970    0.71039    0.59604   1.00
O3       0.48549    0.78901    0.60409   1.00
Si1      0.41215    0.70753    0.59742   1.00
Si1      0.52657    0.79721    0.62673   1.00
C6       0.40890    0.67462    0.63692   1.00
C6       0.39431    0.75402    0.61035   1.00
C6       0.39169    0.68747    0.55460   1.00
C6       0.57047    0.78307    0.60361   1.00
C6       0.52632    0.84802    0.63324   1.00
C6       0.52304    0.77523    0.67307   1.00
C6       0.43632    0.63806    0.63477   1.00
H2       0.42001    0.69209    0.66114   1.00
C6       0.36836    0.65853    0.65097   1.00
H2       0.41905    0.76642    0.62609   1.00
C6       0.38474    0.78366    0.57697   1.00
C6       0.35893    0.75664    0.63911   1.00
H2       0.40988    0.66169    0.54992   1.00
C6       0.34863    0.67228    0.55709   1.00
C6       0.39285    0.71151    0.51556   1.00
C6       0.57531    0.73929    0.59167   1.00
C6       0.58648    0.80775    0.56862   1.00
H2       0.59202    0.78788    0.62656   1.00
H2       0.53043    0.85949    0.60383   1.00
C6       0.48707    0.86622    0.64798   1.00
C6       0.55947    0.86607    0.65889   1.00
H2       0.50647    0.79625    0.69035   1.00
C6       0.49905    0.73664    0.67532   1.00
C6       0.56168    0.76756    0.69624   1.00
H2       0.46684    0.64654    0.63119   1.00
H2       0.42842    0.61910    0.61037   1.00
H2       0.43472    0.62083    0.66157   1.00
H2       0.36880    0.65392    0.68254   1.00
H2       0.34434    0.67822    0.64456   1.00
H2       0.36133    0.63036    0.63782   1.00
H2       0.38213    0.81328    0.58857   1.00
H2       0.40763    0.78468    0.55498   1.00
H2       0.35718    0.77648    0.56271   1.00
H2       0.36496    0.74138    0.66640   1.00
H2       0.35267    0.78692    0.64708   1.00
H2       0.33253    0.74450    0.62601   1.00
H2       0.32910    0.69486    0.56824   1.00
H2       0.33753    0.66292    0.52865   1.00
H2       0.34648    0.64668    0.57566   1.00
H2       0.36780    0.73098    0.51272   1.00
H2       0.41878    0.72932    0.51245   1.00
H2       0.39223    0.69172    0.49051   1.00
H2       0.56154    0.73312    0.56370   1.00
H2       0.60621    0.73191    0.58867   1.00
H2       0.56312    0.71952    0.61333   1.00
H2       0.61620    0.79875    0.56119   1.00
H2       0.56897    0.80426    0.54238   1.00
H2       0.58805    0.83878    0.57553   1.00
H2       0.48761    0.89798    0.64475   1.00
H2       0.46223    0.85565    0.63099   1.00
H2       0.48164    0.85965    0.67865   1.00
H2       0.58824    0.85584    0.64988   1.00
H2       0.55962    0.89788    0.65610   1.00
H2       0.55541    0.85915    0.68973   1.00
H2       0.51197    0.71344    0.65780   1.00
H2       0.49636    0.72619    0.70532   1.00
H2       0.46967    0.74166    0.66462   1.00
H2       0.55536    0.75956    0.72649   1.00
H2       0.57852    0.74378    0.68329   1.00
H2       0.58015    0.79343    0.69728   1.00
C4       0.49815    1.00242    0.22916   1.00
C4       0.49804    1.00170    0.27088   1.00
C3       0.46569    1.01437    0.20636   1.00
C3       0.46441    1.00942    0.29384   1.00
C3       0.53228    0.98999    0.20877   1.00
C3       0.53336    0.99290    0.29114   1.00
C2       0.50003    1.00120    0.14488   1.00
C2       0.49997    0.99880    0.35512   1.00
C3       0.46649    1.01358    0.16538   1.00
C3       0.46542    1.00838    0.33481   1.00
C3       0.53276    0.99010    0.16742   1.00
C3       0.53334    0.99036    0.33238   1.00
H1       0.44055    1.02413    0.21885   1.00
H1       0.43815    1.01579    0.28148   1.00
C5       0.56577    0.97769    0.22980   1.00
C5       0.56841    0.98634    0.27020   1.00
H1       0.44203    1.02229    0.15045   1.00
H1       0.44028    1.01455    0.34990   1.00
H1       0.55782    0.98214    0.15320   1.00
H1       0.55822    0.98159    0.34632   1.00
O3       0.59604    0.95970    0.21039   1.00
O3       0.60409    0.98549    0.28901   1.00
Si1      0.59742    0.91215    0.20753   1.00
Si1      0.62673    1.02657    0.29721   1.00
C6       0.63692    0.90890    0.17462   1.00
C6       0.61035    0.89431    0.25402   1.00
C6       0.55460    0.89169    0.18747   1.00
C6       0.60361    1.07047    0.28307   1.00
C6       0.63324    1.02632    0.34802   1.00
C6       0.67307    1.02304    0.27523   1.00
C6       0.63477    0.93632    0.13806   1.00
H2       0.66114    0.92001    0.19209   1.00
C6       0.65097    0.86836    0.15853   1.00
H2       0.62609    0.91905    0.26642   1.00
C6       0.57697    0.88474    0.28366   1.00
C6       0.63911    0.85893    0.25664   1.00
H2       0.54992    0.90988    0.16169   1.00
C6       0.55709    0.84863    0.17228   1.00
C6       0.51556    0.89285    0.21151   1.00
C6       0.59167    1.07531    0.23929   1.00
C6       0.56862    1.08648    0.30775   1.00
H2       0.62656    1.09202    0.28788   1.00
H2       0.60383    1.03043    0.35949   1.00
C6       0.64798    0.98707    0.36622   1.00
C6       0.65889    1.05947    0.36607   1.00
H2       0.69035    1.00647    0.29625   1.00
C6       0.67532    0.99905    0.23664   1.00
C6       0.69624    1.06168    0.26756   1.00
H2       0.63119    0.96684    0.14654   1.00
H2       0.61037    0.92842    0.11910   1.00
H2       0.66157    0.93472    0.12083   1.00
H2       0.68254    0.86880    0.15392   1.00
H2       0.64456    0.84434    0.17822   1.00
H2       0.63782    0.86133    0.13036   1.00
H2       0.58857    0.88213    0.31328   1.00
H2       0.55498    0.90763    0.28468   1.00
H2       0.56271    0.85718    0.27648   1.00
H2       0.66640    0.86496    0.24138   1.00
H2       0.64708    0.85267    0.28692   1.00
H2       0.62601    0.83253    0.24450   1.00
H2       0.56824    0.82910    0.19486   1.00
H2       0.52865    0.83753    0.16292   1.00
H2       0.57566    0.84648    0.14668   1.00
H2       0.51272    0.86780    0.23098   1.00
H2       0.51245    0.91878    0.22932   1.00
H2       0.49051    0.89223    0.19172   1.00
H2       0.56370    1.06154    0.23312   1.00
H2       0.58867    1.10621    0.23191   1.00
H2       0.61333    1.06312    0.21952   1.00
H2       0.56119    1.11620    0.29875   1.00
H2       0.54238    1.06897    0.30426   1.00
H2       0.57553    1.08805    0.33878   1.00
H2       0.64475    0.98761    0.39798   1.00
H2       0.63099    0.96223    0.35565   1.00
H2       0.67865    0.98164    0.35965   1.00
H2       0.64988    1.08824    0.35584   1.00
H2       0.65610    1.05962    0.39788   1.00
H2       0.68973    1.05541    0.35915   1.00
H2       0.65780    1.01197    0.21344   1.00
H2       0.70532    0.99636    0.22619   1.00
H2       0.66462    0.96967    0.24166   1.00
H2       0.72649    1.05536    0.25956   1.00
H2       0.68329    1.07852    0.24378   1.00
H2       0.69728    1.08015    0.29343   1.00
C4       0.99815    0.49758    0.77084   1.00
C4       0.99804    0.49830    0.72912   1.00
C3       0.96569    0.48563    0.79364   1.00
C3       0.96441    0.49058    0.70616   1.00
C3       1.03228    0.51001    0.79123   1.00
C3       1.03336    0.50710    0.70886   1.00
C2       1.00003    0.49880    0.85512   1.00
C2       0.99997    0.50120    0.64488   1.00
C3       0.96649    0.48642    0.83462   1.00
C3       0.96542    0.49162    0.66519   1.00
C3       1.03276    0.50990    0.83258   1.00
C3       1.03334    0.50964    0.66762   1.00
H1       0.94055    0.47587    0.78115   1.00
H1       0.93815    0.48421    0.71852   1.00
C5       1.06577    0.52231    0.77020   1.00
C5       1.06841    0.51366    0.72980   1.00
H1       0.94203    0.47771    0.84955   1.00
H1       0.94028    0.48545    0.65010   1.00
H1       1.05782    0.51786    0.84680   1.00
H1       1.05822    0.51841    0.65368   1.00
O3       1.09604    0.54030    0.78961   1.00
O3       1.10409    0.51451    0.71099   1.00
Si1      1.09742    0.58785    0.79247   1.00
Si1      1.12673    0.47343    0.70279   1.00
C6       1.13692    0.59110    0.82538   1.00
C6       1.11035    0.60569    0.74598   1.00
C6       1.05460    0.60831    0.81253   1.00
C6       1.10361    0.42953    0.71693   1.00
C6       1.13324    0.47368    0.65198   1.00
C6       1.17307    0.47696    0.72477   1.00
C6       1.13477    0.56368    0.86194   1.00
H2       1.16114    0.57999    0.80791   1.00
C6       1.15097    0.63164    0.84147   1.00
H2       1.12609    0.58095    0.73358   1.00
C6       1.07697    0.61526    0.71634   1.00
C6       1.13911    0.64107    0.74336   1.00
H2       1.04992    0.59012    0.83831   1.00
C6       1.05709    0.65137    0.82772   1.00
C6       1.01556    0.60715    0.78849   1.00
C6       1.09167    0.42469    0.76071   1.00
C6       1.06862    0.41352    0.69225   1.00
H2       1.12656    0.40798    0.71212   1.00
H2       1.10383    0.46957    0.64051   1.00
C6       1.14798    0.51293    0.63378   1.00
C6       1.15889    0.44053    0.63393   1.00
H2       1.19035    0.49353    0.70375   1.00
C6       1.17532    0.50095    0.76336   1.00
C6       1.19624    0.43832    0.73244   1.00
H2       1.13119    0.53316    0.85346   1.00
H2       1.11037    0.57158    0.88090   1.00
H2       1.16157    0.56528    0.87917   1.00
H2       1.18254    0.63120    0.84608   1.00
H2       1.14456    0.65566    0.82178   1.00
H2       1.13782    0.63867    0.86964   1.00
H2       1.08857    0.61787    0.68672   1.00
H2       1.05498    0.59237    0.71532   1.00
H2       1.06271    0.64282    0.72352   1.00
H2       1.16640    0.63504    0.75862   1.00
H2       1.14708    0.64733    0.71308   1.00
H2       1.12601    0.66747    0.75550   1.00
H2       1.06824    0.67090    0.80514   1.00
H2       1.02865    0.66247    0.83708   1.00
H2       1.07566    0.65352    0.85332   1.00
H2       1.01272    0.63220    0.76902   1.00
H2       1.01245    0.58122    0.77068   1.00
H2       0.99051    0.60777    0.80828   1.00
H2       1.06370    0.43846    0.76688   1.00
H2       1.08867    0.39379    0.76809   1.00
H2       1.11333    0.43688    0.78048   1.00
H2       1.06119    0.38380    0.70125   1.00
H2       1.04238    0.43103    0.69574   1.00
H2       1.07553    0.41195    0.66122   1.00
H2       1.14475    0.51239    0.60202   1.00
H2       1.13099    0.53777    0.64435   1.00
H2       1.17865    0.51836    0.64035   1.00
H2       1.14988    0.41176    0.64416   1.00
H2       1.15610    0.44038    0.60212   1.00
H2       1.18973    0.44459    0.64085   1.00
H2       1.15780    0.48803    0.78656   1.00
H2       1.20532    0.50364    0.77381   1.00
H2       1.16462    0.53033    0.75834   1.00
H2       1.22649    0.44464    0.74044   1.00
H2       1.18329    0.42148    0.75622   1.00
H2       1.19728    0.41985    0.70657   1.00
C4       0.99758    0.77084    0.49815   1.00
C4       0.99830    0.72912    0.49804   1.00
C3       0.98563    0.79364    0.46569   1.00
C3       0.99058    0.70616    0.46441   1.00
C3       1.01001    0.79123    0.53228   1.00
C3       1.00710    0.70886    0.53336   1.00
C2       0.99880    0.85512    0.50003   1.00
C2       1.00120    0.64488    0.49997   1.00
C3       0.98642    0.83462    0.46649   1.00
C3       0.99162    0.66519    0.46542   1.00
C3       1.00990    0.83258    0.53276   1.00
C3       1.00964    0.66762    0.53334   1.00
H1       0.97587    0.78115    0.44055   1.00
H1       0.98421    0.71852    0.43815   1.00
C5       1.02231    0.77020    0.56577   1.00
C5       1.01366    0.72980    0.56841   1.00
H1       0.97771    0.84955    0.44203   1.00
H1       0.98545    0.65010    0.44028   1.00
H1       1.01786    0.84680    0.55782   1.00
H1       1.01841    0.65368    0.55822   1.00
O3       1.04030    0.78961    0.59604   1.00
O3       1.01451    0.71099    0.60409   1.00
Si1      1.08785    0.79247    0.59742   1.00
Si1      0.97343    0.70279    0.62673   1.00
C6       1.09110    0.82538    0.63692   1.00
C6       1.10569    0.74598    0.61035   1.00
C6       1.10831    0.81253    0.55460   1.00
C6       0.92953    0.71693    0.60361   1.00
C6       0.97368    0.65198    0.63324   1.00
C6       0.97696    0.72477    0.67307   1.00
C6       1.06368    0.86194    0.63477   1.00
H2       1.07999    0.80791    0.66114   1.00
C6       1.13164    0.84147    0.65097   1.00
H2       1.08095    0.73358    0.62609   1.00
C6       1.11526    0.71634    0.57697   1.00
C6       1.14107    0.74336    0.63911   1.00
H2       1.09012    0.83831    0.54992   1.00
C6       1.15137    0.82772    0.55709   1.00
C6       1.10715    0.78849    0.51556   1.00
C6       0.92469    0.76071    0.59167   1.00
C6       0.91352    0.69225    0.56862   1.00
H2       0.90798    0.71212    0.62656   1.00
H2       0.96957    0.64051    0.60383   1.00
C6       1.01293    0.63378    0.64798   1.00
C6       0.94053    0.63393    0.65889   1.00
H2       0.99353    0.70375    0.69035   1.00
C6       1.00095    0.76336    0.67532   1.00
C6       0.93832    0.73244    0.69624   1.00
H2       1.03316    0.85346    0.63119   1.00
H2       1.07158    0.88090    0.61037   1.00
H2       1.06528    0.87917    0.66157   1.00
H2       1.13120    0.84608    0.68254   1.00
H2       1.15566    0.82178    0.64456   1.00
H2       1.13867    0.86964    0.63782   1.00
H2       1.11787    0.68672    0.58857   1.00
H2       1.09237    0.71532    0.55498   1.00
H2       1.14282    0.72352    0.56271   1.00
H2       1.13504    0.75862    0.66640   1.00
H2       1.14733    0.71308    0.64708   1.00
H2       1.16747    0.75550    0.62601   1.00
H2       1.17090    0.80514    0.56824   1.00
H2       1.16247    0.83708    0.52865   1.00
H2       1.15352    0.85332    0.57566   1.00
H2       1.13220    0.76902    0.51272   1.00
H2       1.08122    0.77068    0.51245   1.00
H2       1.10777    0.80828    0.49051   1.00
H2       0.93846    0.76688    0.56370   1.00
H2       0.89379    0.76809    0.58867   1.00
H2       0.93688    0.78048    0.61333   1.00
H2       0.88380    0.70125    0.56119   1.00
H2       0.93103    0.69574    0.54238   1.00
H2       0.91195    0.66122    0.57553   1.00
H2       1.01239    0.60202    0.64475   1.00
H2       1.03777    0.64435    0.63099   1.00
H2       1.01836    0.64035    0.67865   1.00
H2       0.91176    0.64416    0.64988   1.00
H2       0.94038    0.60212    0.65610   1.00
H2       0.94459    0.64085    0.68973   1.00
H2       0.98803    0.78656    0.65780   1.00
H2       1.00364    0.77381    0.70532   1.00
H2       1.03033    0.75834    0.66462   1.00
H2       0.94464    0.74044    0.72649   1.00
H2       0.92148    0.75622    0.68329   1.00
H2       0.91985    0.70657    0.69728   1.00
C4       0.72916    0.49815    0.50242   1.00
C4       0.77088    0.49804    0.50170   1.00
C3       0.70636    0.46569    0.51437   1.00
C3       0.79384    0.46441    0.50942   1.00
C3       0.70877    0.53228    0.48999   1.00
C3       0.79114    0.53336    0.49290   1.00
C2       0.64488    0.50003    0.50120   1.00
C2       0.85512    0.49997    0.49880   1.00
C3       0.66538    0.46649    0.51358   1.00
C3       0.83481    0.46542    0.50838   1.00
C3       0.66742    0.53276    0.49010   1.00
C3       0.83238    0.53334    0.49036   1.00
H1       0.71885    0.44055    0.52413   1.00
H1       0.78148    0.43815    0.51579   1.00
C5       0.72980    0.56577    0.47769   1.00
C5       0.77020    0.56841    0.48634   1.00
H1       0.65045    0.44203    0.52229   1.00
H1       0.84990    0.44028    0.51455   1.00
H1       0.65320    0.55782    0.48214   1.00
H1       0.84632    0.55822    0.48159   1.00
O3       0.71039    0.59604    0.45970   1.00
O3       0.78901    0.60409    0.48549   1.00
Si1      0.70753    0.59742    0.41215   1.00
Si1      0.79721    0.62673    0.52657   1.00
C6       0.67462    0.63692    0.40890   1.00
C6       0.75402    0.61035    0.39431   1.00
C6       0.68747    0.55460    0.39169   1.00
C6       0.78307    0.60361    0.57047   1.00
C6       0.84802    0.63324    0.52632   1.00
C6       0.77523    0.67307    0.52304   1.00
C6       0.63806    0.63477    0.43632   1.00
H2       0.69209    0.66114    0.42001   1.00
C6       0.65853    0.65097    0.36836   1.00
H2       0.76642    0.62609    0.41905   1.00
C6       0.78366    0.57697    0.38474   1.00
C6       0.75664    0.63911    0.35893   1.00
H2       0.66169    0.54992    0.40988   1.00
C6       0.67228    0.55709    0.34863   1.00
C6       0.71151    0.51556    0.39285   1.00
C6       0.73929    0.59167    0.57531   1.00
C6       0.80775    0.56862    0.58648   1.00
H2       0.78788    0.62656    0.59202   1.00
H2       0.85949    0.60383    0.53043   1.00
C6       0.86622    0.64798    0.48707   1.00
C6       0.86607    0.65889    0.55947   1.00
H2       0.79625    0.69035    0.50647   1.00
C6       0.73664    0.67532    0.49905   1.00
C6       0.76756    0.69624    0.56168   1.00
H2       0.64654    0.63119    0.46684   1.00
H2       0.61910    0.61037    0.42842   1.00
H2       0.62083    0.66157    0.43472   1.00
H2       0.65392    0.68254    0.36880   1.00
H2       0.67822    0.64456    0.34434   1.00
H2       0.63036    0.63782    0.36133   1.00
H2       0.81328    0.58857    0.38213   1.00
H2       0.78468    0.55498    0.40763   1.00
H2       0.77648    0.56271    0.35718   1.00
H2       0.74138    0.66640    0.36496   1.00
H2       0.78692    0.64708    0.35267   1.00
H2       0.74450    0.62601    0.33253   1.00
H2       0.69486    0.56824    0.32910   1.00
H2       0.66292    0.52865    0.33753   1.00
H2       0.64668    0.57566    0.34648   1.00
H2       0.73098    0.51272    0.36780   1.00
H2       0.72932    0.51245    0.41878   1.00
H2       0.69172    0.49051    0.39223   1.00
H2       0.73312    0.56370    0.56154   1.00
H2       0.73191    0.58867    0.60621   1.00
H2       0.71952    0.61333    0.56312   1.00
H2       0.79875    0.56119    0.61620   1.00
H2       0.80426    0.54238    0.56897   1.00
H2       0.83878    0.57553    0.58805   1.00
H2       0.89798    0.64475    0.48761   1.00
H2       0.85565    0.63099    0.46223   1.00
H2       0.85965    0.67865    0.48164   1.00
H2       0.85584    0.64988    0.58824   1.00
H2       0.89788    0.65610    0.55962   1.00
H2       0.85915    0.68973    0.55541   1.00
H2       0.71344    0.65780    0.51197   1.00
H2       0.72619    0.70532    0.49636   1.00
H2       0.74166    0.66462    0.46967   1.00
H2       0.75956    0.72649    0.55536   1.00
H2       0.74378    0.68329    0.57852   1.00
H2       0.79343    0.69728    0.58015   1.00
C4       1.27084    0.49815    0.49758   1.00
C4       1.22912    0.49804    0.49830   1.00
C3       1.29364    0.46569    0.48563   1.00
C3       1.20616    0.46441    0.49058   1.00
C3       1.29123    0.53228    0.51001   1.00
C3       1.20886    0.53336    0.50710   1.00
C2       1.35512    0.50003    0.49880   1.00
C2       1.14488    0.49997    0.50120   1.00
C3       1.33462    0.46649    0.48642   1.00
C3       1.16519    0.46542    0.49162   1.00
C3       1.33258    0.53276    0.50990   1.00
C3       1.16762    0.53334    0.50964   1.00
H1       1.28115    0.44055    0.47587   1.00
H1       1.21852    0.43815    0.48421   1.00
C5       1.27020    0.56577    0.52231   1.00
C5       1.22980    0.56841    0.51366   1.00
H1       1.34955    0.44203    0.47771   1.00
H1       1.15010    0.44028    0.48545   1.00
H1       1.34680    0.55782    0.51786   1.00
H1       1.15368    0.55822    0.51841   1.00
O3       1.28961    0.59604    0.54030   1.00
O3       1.21099    0.60409    0.51451   1.00
Si1      1.29247    0.59742    0.58785   1.00
Si1      1.20279    0.62673    0.47343   1.00
C6       1.32538    0.63692    0.59110   1.00
C6       1.24598    0.61035    0.60569   1.00
C6       1.31253    0.55460    0.60831   1.00
C6       1.21693    0.60361    0.42953   1.00
C6       1.15198    0.63324    0.47368   1.00
C6       1.22477    0.67307    0.47696   1.00
C6       1.36194    0.63477    0.56368   1.00
H2       1.30791    0.66114    0.57999   1.00
C6       1.34147    0.65097    0.63164   1.00
H2       1.23358    0.62609    0.58095   1.00
C6       1.21634    0.57697    0.61526   1.00
C6       1.24336    0.63911    0.64107   1.00
H2       1.33831    0.54992    0.59012   1.00
C6       1.32772    0.55709    0.65137   1.00
C6       1.28849    0.51556    0.60715   1.00
C6       1.26071    0.59167    0.42469   1.00
C6       1.19225    0.56862    0.41352   1.00
H2       1.21212    0.62656    0.40798   1.00
H2       1.14051    0.60383    0.46957   1.00
C6       1.13378    0.64798    0.51293   1.00
C6       1.13393    0.65889    0.44053   1.00
H2       1.20375    0.69035    0.49353   1.00
C6       1.26336    0.67532    0.50095   1.00
C6       1.23244    0.69624    0.43832   1.00
H2       1.35346    0.63119    0.53316   1.00
H2       1.38090    0.61037    0.57158   1.00
H2       1.37917    0.66157    0.56528   1.00
H2       1.34608    0.68254    0.63120   1.00
H2       1.32178    0.64456    0.65566   1.00
H2       1.36964    0.63782    0.63867   1.00
H2       1.18672    0.58857    0.61787   1.00
H2       1.21532    0.55498    0.59237   1.00
H2       1.22352    0.56271    0.64282   1.00
H2       1.25862    0.66640    0.63504   1.00
H2       1.21308    0.64708    0.64733   1.00
H2       1.25550    0.62601    0.66747   1.00
H2       1.30514    0.56824    0.67090   1.00
H2       1.33708    0.52865    0.66247   1.00
H2       1.35332    0.57566    0.65352   1.00
H2       1.26902    0.51272    0.63220   1.00
H2       1.27068    0.51245    0.58122   1.00
H2       1.30828    0.49051    0.60777   1.00
H2       1.26688    0.56370    0.43846   1.00
H2       1.26809    0.58867    0.39379   1.00
H2       1.28048    0.61333    0.43688   1.00
H2       1.20125    0.56119    0.38380   1.00
H2       1.19574    0.54238    0.43103   1.00
H2       1.16122    0.57553    0.41195   1.00
H2       1.10202    0.64475    0.51239   1.00
H2       1.14435    0.63099    0.53777   1.00
H2       1.14035    0.67865    0.51836   1.00
H2       1.14416    0.64988    0.41176   1.00
H2       1.10212    0.65610    0.44038   1.00
H2       1.14085    0.68973    0.44459   1.00
H2       1.28656    0.65780    0.48803   1.00
H2       1.27381    0.70532    0.50364   1.00
H2       1.25834    0.66462    0.53033   1.00
H2       1.24044    0.72649    0.44464   1.00
H2       1.25622    0.68329    0.42148   1.00
H2       1.20657    0.69728    0.41985   1.00
C4       1.00242    0.22916    0.49815   1.00
C4       1.00170    0.27088    0.49804   1.00
C3       1.01437    0.20636    0.46569   1.00
C3       1.00942    0.29384    0.46441   1.00
C3       0.98999    0.20877    0.53228   1.00
C3       0.99290    0.29114    0.53336   1.00
C2       1.00120    0.14488    0.50003   1.00
C2       0.99880    0.35512    0.49997   1.00
C3       1.01358    0.16538    0.46649   1.00
C3       1.00838    0.33481    0.46542   1.00
C3       0.99010    0.16742    0.53276   1.00
C3       0.99036    0.33238    0.53334   1.00
H1       1.02413    0.21885    0.44055   1.00
H1       1.01579    0.28148    0.43815   1.00
C5       0.97769    0.22980    0.56577   1.00
C5       0.98634    0.27020    0.56841   1.00
H1       1.02229    0.15045    0.44203   1.00
H1       1.01455    0.34990    0.44028   1.00
H1       0.98214    0.15320    0.55782   1.00
H1       0.98159    0.34632    0.55822   1.00
O3       0.95970    0.21039    0.59604   1.00
O3       0.98549    0.28901    0.60409   1.00
Si1      0.91215    0.20753    0.59742   1.00
Si1      1.02657    0.29721    0.62673   1.00
C6       0.90890    0.17462    0.63692   1.00
C6       0.89431    0.25402    0.61035   1.00
C6       0.89169    0.18747    0.55460   1.00
C6       1.07047    0.28307    0.60361   1.00
C6       1.02632    0.34802    0.63324   1.00
C6       1.02304    0.27523    0.67307   1.00
C6       0.93632    0.13806    0.63477   1.00
H2       0.92001    0.19209    0.66114   1.00
C6       0.86836    0.15853    0.65097   1.00
H2       0.91905    0.26642    0.62609   1.00
C6       0.88474    0.28366    0.57697   1.00
C6       0.85893    0.25664    0.63911   1.00
H2       0.90988    0.16169    0.54992   1.00
C6       0.84863    0.17228    0.55709   1.00
C6       0.89285    0.21151    0.51556   1.00
C6       1.07531    0.23929    0.59167   1.00
C6       1.08648    0.30775    0.56862   1.00
H2       1.09202    0.28788    0.62656   1.00
H2       1.03043    0.35949    0.60383   1.00
C6       0.98707    0.36622    0.64798   1.00
C6       1.05947    0.36607    0.65889   1.00
H2       1.00647    0.29625    0.69035   1.00
C6       0.99905    0.23664    0.67532   1.00
C6       1.06168    0.26756    0.69624   1.00
H2       0.96684    0.14654    0.63119   1.00
H2       0.92842    0.11910    0.61037   1.00
H2       0.93472    0.12083    0.66157   1.00
H2       0.86880    0.15392    0.68254   1.00
H2       0.84434    0.17822    0.64456   1.00
H2       0.86133    0.13036    0.63782   1.00
H2       0.88213    0.31328    0.58857   1.00
H2       0.90763    0.28468    0.55498   1.00
H2       0.85718    0.27648    0.56271   1.00
H2       0.86496    0.24138    0.66640   1.00
H2       0.85267    0.28692    0.64708   1.00
H2       0.83253    0.24450    0.62601   1.00
H2       0.82910    0.19486    0.56824   1.00
H2       0.83753    0.16292    0.52865   1.00
H2       0.84648    0.14668    0.57566   1.00
H2       0.86780    0.23098    0.51272   1.00
H2       0.91878    0.22932    0.51245   1.00
H2       0.89223    0.19172    0.49051   1.00
H2       1.06154    0.23312    0.56370   1.00
H2       1.10621    0.23191    0.58867   1.00
H2       1.06312    0.21952    0.61333   1.00
H2       1.11620    0.29875    0.56119   1.00
H2       1.06897    0.30426    0.54238   1.00
H2       1.08805    0.33878    0.57553   1.00
H2       0.98761    0.39798    0.64475   1.00
H2       0.96223    0.35565    0.63099   1.00
H2       0.98164    0.35965    0.67865   1.00
H2       1.08824    0.35584    0.64988   1.00
H2       1.05962    0.39788    0.65610   1.00
H2       1.05541    0.35915    0.68973   1.00
H2       1.01197    0.21344    0.65780   1.00
H2       0.99636    0.22619    0.70532   1.00
H2       0.96967    0.24166    0.66462   1.00
H2       1.05536    0.25956    0.72649   1.00
H2       1.07852    0.24378    0.68329   1.00
H2       1.08015    0.29343    0.69728   1.00
C4       0.99815    0.50242    0.22916   1.00
C4       0.99804    0.50170    0.27088   1.00
C3       0.96569    0.51437    0.20636   1.00
C3       0.96441    0.50942    0.29384   1.00
C3       1.03228    0.48999    0.20877   1.00
C3       1.03336    0.49290    0.29114   1.00
C2       1.00003    0.50120    0.14488   1.00
C2       0.99997    0.49880    0.35512   1.00
C3       0.96649    0.51358    0.16538   1.00
C3       0.96542    0.50838    0.33481   1.00
C3       1.03276    0.49010    0.16742   1.00
C3       1.03334    0.49036    0.33238   1.00
H1       0.94055    0.52413    0.21885   1.00
H1       0.93815    0.51579    0.28148   1.00
C5       1.06577    0.47769    0.22980   1.00
C5       1.06841    0.48634    0.27020   1.00
H1       0.94203    0.52229    0.15045   1.00
H1       0.94028    0.51455    0.34990   1.00
H1       1.05782    0.48214    0.15320   1.00
H1       1.05822    0.48159    0.34632   1.00
O3       1.09604    0.45970    0.21039   1.00
O3       1.10409    0.48549    0.28901   1.00
Si1      1.09742    0.41215    0.20753   1.00
Si1      1.12673    0.52657    0.29721   1.00
C6       1.13692    0.40890    0.17462   1.00
C6       1.11035    0.39431    0.25402   1.00
C6       1.05460    0.39169    0.18747   1.00
C6       1.10361    0.57047    0.28307   1.00
C6       1.13324    0.52632    0.34802   1.00
C6       1.17307    0.52304    0.27523   1.00
C6       1.13477    0.43632    0.13806   1.00
H2       1.16114    0.42001    0.19209   1.00
C6       1.15097    0.36836    0.15853   1.00
H2       1.12609    0.41905    0.26642   1.00
C6       1.07697    0.38474    0.28366   1.00
C6       1.13911    0.35893    0.25664   1.00
H2       1.04992    0.40988    0.16169   1.00
C6       1.05709    0.34863    0.17228   1.00
C6       1.01556    0.39285    0.21151   1.00
C6       1.09167    0.57531    0.23929   1.00
C6       1.06862    0.58648    0.30775   1.00
H2       1.12656    0.59202    0.28788   1.00
H2       1.10383    0.53043    0.35949   1.00
C6       1.14798    0.48707    0.36622   1.00
C6       1.15889    0.55947    0.36607   1.00
H2       1.19035    0.50647    0.29625   1.00
C6       1.17532    0.49905    0.23664   1.00
C6       1.19624    0.56168    0.26756   1.00
H2       1.13119    0.46684    0.14654   1.00
H2       1.11037    0.42842    0.11910   1.00
H2       1.16157    0.43472    0.12083   1.00
H2       1.18254    0.36880    0.15392   1.00
H2       1.14456    0.34434    0.17822   1.00
H2       1.13782    0.36133    0.13036   1.00
H2       1.08857    0.38213    0.31328   1.00
H2       1.05498    0.40763    0.28468   1.00
H2       1.06271    0.35718    0.27648   1.00
H2       1.16640    0.36496    0.24138   1.00
H2       1.14708    0.35267    0.28692   1.00
H2       1.12601    0.33253    0.24450   1.00
H2       1.06824    0.32910    0.19486   1.00
H2       1.02865    0.33753    0.16292   1.00
H2       1.07566    0.34648    0.14668   1.00
H2       1.01272    0.36780    0.23098   1.00
H2       1.01245    0.41878    0.22932   1.00
H2       0.99051    0.39223    0.19172   1.00
H2       1.06370    0.56154    0.23312   1.00
H2       1.08867    0.60621    0.23191   1.00
H2       1.11333    0.56312    0.21952   1.00
H2       1.06119    0.61620    0.29875   1.00
H2       1.04238    0.56897    0.30426   1.00
H2       1.07553    0.58805    0.33878   1.00
H2       1.14475    0.48761    0.39798   1.00
H2       1.13099    0.46223    0.35565   1.00
H2       1.17865    0.48164    0.35965   1.00
H2       1.14988    0.58824    0.35584   1.00
H2       1.15610    0.55962    0.39788   1.00
H2       1.18973    0.55541    0.35915   1.00
H2       1.15780    0.51197    0.21344   1.00
H2       1.20532    0.49636    0.22619   1.00
H2       1.16462    0.46967    0.24166   1.00
H2       1.22649    0.55536    0.25956   1.00
H2       1.18329    0.57852    0.24378   1.00
H2       1.19728    0.58015    0.29343   1.00
