data_IRMOF10_SG202_interpen_Ligand10lp_label_d.

_audit_creation_method             'generated by an auxiliary program of Tobunporous'

_symmetry_space_group_name_H-M     'P 1'
_symmetry_Int_Tables_number        1
_symmetry_cell_setting             triclinic

_cell_length_a                    34.2800
_cell_length_b                    34.2800
_cell_length_c                    34.2800
_cell_angle_alpha                 90.0000
_cell_angle_beta                  90.0000
_cell_angle_gamma                 90.0000

loop_
_atom_site_label
_atom_site_fract_x
_atom_site_fract_y
_atom_site_fract_z
_atom_site_occupancy
O1       0.75000    0.75000    0.75000   1.00
Zn1      0.71720    0.78280    0.78280   1.00
Zn1      0.78280    0.71720    0.78280   1.00
Zn1      0.78280    0.78280    0.71720   1.00
Zn1      0.71720    0.71720    0.71720   1.00
O2       0.72650    0.77350    0.83820   1.00
O2       0.72650    0.83820    0.77350   1.00
O2       0.66180    0.77350    0.77350   1.00
O2       0.77350    0.72650    0.83820   1.00
O2       0.83820    0.72650    0.77350   1.00
O2       0.77350    0.66180    0.77350   1.00
O2       0.77350    0.83820    0.72650   1.00
O2       0.83820    0.77350    0.72650   1.00
O2       0.77350    0.77350    0.66180   1.00
O2       0.66180    0.72650    0.72650   1.00
O2       0.72650    0.66180    0.72650   1.00
O2       0.72650    0.72650    0.66180   1.00
C1       0.75000    0.75000    0.85520   1.00
C1       0.75000    0.85520    0.75000   1.00
C1       0.64480    0.75000    0.75000   1.00
C1       0.85520    0.75000    0.75000   1.00
C1       0.75000    0.64480    0.75000   1.00
C1       0.75000    0.75000    0.64480   1.00
O1       0.25000    0.25000    0.75000   1.00
Zn1      0.21720    0.28280    0.78280   1.00
Zn1      0.28280    0.21720    0.78280   1.00
Zn1      0.28280    0.28280    0.71720   1.00
Zn1      0.21720    0.21720    0.71720   1.00
O2       0.22650    0.27350    0.83820   1.00
O2       0.22650    0.33820    0.77350   1.00
O2       0.16180    0.27350    0.77350   1.00
O2       0.27350    0.22650    0.83820   1.00
O2       0.33820    0.22650    0.77350   1.00
O2       0.27350    0.16180    0.77350   1.00
O2       0.27350    0.33820    0.72650   1.00
O2       0.33820    0.27350    0.72650   1.00
O2       0.27350    0.27350    0.66180   1.00
O2       0.16180    0.22650    0.72650   1.00
O2       0.22650    0.16180    0.72650   1.00
O2       0.22650    0.22650    0.66180   1.00
C1       0.25000    0.25000    0.85520   1.00
C1       0.25000    0.35520    0.75000   1.00
C1       0.14480    0.25000    0.75000   1.00
C1       0.35520    0.25000    0.75000   1.00
C1       0.25000    0.14480    0.75000   1.00
C1       0.25000    0.25000    0.64480   1.00
O1       0.25000    0.75000    0.25000   1.00
Zn1      0.21720    0.78280    0.28280   1.00
Zn1      0.28280    0.71720    0.28280   1.00
Zn1      0.28280    0.78280    0.21720   1.00
Zn1      0.21720    0.71720    0.21720   1.00
O2       0.22650    0.77350    0.33820   1.00
O2       0.22650    0.83820    0.27350   1.00
O2       0.16180    0.77350    0.27350   1.00
O2       0.27350    0.72650    0.33820   1.00
O2       0.33820    0.72650    0.27350   1.00
O2       0.27350    0.66180    0.27350   1.00
O2       0.27350    0.83820    0.22650   1.00
O2       0.33820    0.77350    0.22650   1.00
O2       0.27350    0.77350    0.16180   1.00
O2       0.16180    0.72650    0.22650   1.00
O2       0.22650    0.66180    0.22650   1.00
O2       0.22650    0.72650    0.16180   1.00
C1       0.25000    0.75000    0.35520   1.00
C1       0.25000    0.85520    0.25000   1.00
C1       0.14480    0.75000    0.25000   1.00
C1       0.35520    0.75000    0.25000   1.00
C1       0.25000    0.64480    0.25000   1.00
C1       0.25000    0.75000    0.14480   1.00
O1       0.75000    0.25000    0.25000   1.00
Zn1      0.71720    0.28280    0.28280   1.00
Zn1      0.78280    0.21720    0.28280   1.00
Zn1      0.78280    0.28280    0.21720   1.00
Zn1      0.71720    0.21720    0.21720   1.00
O2       0.72650    0.27350    0.33820   1.00
O2       0.72650    0.33820    0.27350   1.00
O2       0.66180    0.27350    0.27350   1.00
O2       0.77350    0.22650    0.33820   1.00
O2       0.83820    0.22650    0.27350   1.00
O2       0.77350    0.16180    0.27350   1.00
O2       0.77350    0.33820    0.22650   1.00
O2       0.83820    0.27350    0.22650   1.00
O2       0.77350    0.27350    0.16180   1.00
O2       0.66180    0.22650    0.22650   1.00
O2       0.72650    0.16180    0.22650   1.00
O2       0.72650    0.22650    0.16180   1.00
C1       0.75000    0.25000    0.35520   1.00
C1       0.75000    0.35520    0.25000   1.00
C1       0.64480    0.25000    0.25000   1.00
C1       0.85520    0.25000    0.25000   1.00
C1       0.75000    0.14480    0.25000   1.00
C1       0.75000    0.25000    0.14480   1.00
O1       0.25000    0.25000    0.25000   1.00
Zn1      0.28280    0.21720    0.21720   1.00
Zn1      0.21720    0.28280    0.21720   1.00
Zn1      0.21720    0.21720    0.28280   1.00
Zn1      0.28280    0.28280    0.28280   1.00
O2       0.27350    0.22650    0.16180   1.00
O2       0.27350    0.16180    0.22650   1.00
O2       0.33820    0.22650    0.22650   1.00
O2       0.22650    0.27350    0.16180   1.00
O2       0.16180    0.27350    0.22650   1.00
O2       0.22650    0.33820    0.22650   1.00
O2       0.22650    0.16180    0.27350   1.00
O2       0.16180    0.22650    0.27350   1.00
O2       0.22650    0.22650    0.33820   1.00
O2       0.33820    0.27350    0.27350   1.00
O2       0.27350    0.33820    0.27350   1.00
O2       0.27350    0.27350    0.33820   1.00
C1       0.25000    0.25000    0.14480   1.00
C1       0.25000    0.14480    0.25000   1.00
C1       0.35520    0.25000    0.25000   1.00
C1       0.14480    0.25000    0.25000   1.00
C1       0.25000    0.35520    0.25000   1.00
C1       0.25000    0.25000    0.35520   1.00
O1       0.75000    0.75000    0.25000   1.00
Zn1      0.78280    0.71720    0.21720   1.00
Zn1      0.71720    0.78280    0.21720   1.00
Zn1      0.71720    0.71720    0.28280   1.00
Zn1      0.78280    0.78280    0.28280   1.00
O2       0.77350    0.72650    0.16180   1.00
O2       0.77350    0.66180    0.22650   1.00
O2       0.83820    0.72650    0.22650   1.00
O2       0.72650    0.77350    0.16180   1.00
O2       0.66180    0.77350    0.22650   1.00
O2       0.72650    0.83820    0.22650   1.00
O2       0.72650    0.66180    0.27350   1.00
O2       0.66180    0.72650    0.27350   1.00
O2       0.72650    0.72650    0.33820   1.00
O2       0.83820    0.77350    0.27350   1.00
O2       0.77350    0.83820    0.27350   1.00
O2       0.77350    0.77350    0.33820   1.00
C1       0.75000    0.75000    0.14480   1.00
C1       0.75000    0.64480    0.25000   1.00
C1       0.85520    0.75000    0.25000   1.00
C1       0.64480    0.75000    0.25000   1.00
C1       0.75000    0.85520    0.25000   1.00
C1       0.75000    0.75000    0.35520   1.00
O1       0.75000    0.25000    0.75000   1.00
Zn1      0.78280    0.21720    0.71720   1.00
Zn1      0.71720    0.28280    0.71720   1.00
Zn1      0.71720    0.21720    0.78280   1.00
Zn1      0.78280    0.28280    0.78280   1.00
O2       0.77350    0.22650    0.66180   1.00
O2       0.77350    0.16180    0.72650   1.00
O2       0.83820    0.22650    0.72650   1.00
O2       0.72650    0.27350    0.66180   1.00
O2       0.66180    0.27350    0.72650   1.00
O2       0.72650    0.33820    0.72650   1.00
O2       0.72650    0.16180    0.77350   1.00
O2       0.66180    0.22650    0.77350   1.00
O2       0.72650    0.22650    0.83820   1.00
O2       0.83820    0.27350    0.77350   1.00
O2       0.77350    0.33820    0.77350   1.00
O2       0.77350    0.27350    0.83820   1.00
C1       0.75000    0.25000    0.64480   1.00
C1       0.75000    0.14480    0.75000   1.00
C1       0.85520    0.25000    0.75000   1.00
C1       0.64480    0.25000    0.75000   1.00
C1       0.75000    0.35520    0.75000   1.00
C1       0.75000    0.25000    0.85520   1.00
O1       0.25000    0.75000    0.75000   1.00
Zn1      0.28280    0.71720    0.71720   1.00
Zn1      0.21720    0.78280    0.71720   1.00
Zn1      0.21720    0.71720    0.78280   1.00
Zn1      0.28280    0.78280    0.78280   1.00
O2       0.27350    0.72650    0.66180   1.00
O2       0.27350    0.66180    0.72650   1.00
O2       0.33820    0.72650    0.72650   1.00
O2       0.22650    0.77350    0.66180   1.00
O2       0.16180    0.77350    0.72650   1.00
O2       0.22650    0.83820    0.72650   1.00
O2       0.22650    0.66180    0.77350   1.00
O2       0.16180    0.72650    0.77350   1.00
O2       0.22650    0.72650    0.83820   1.00
O2       0.33820    0.77350    0.77350   1.00
O2       0.27350    0.83820    0.77350   1.00
O2       0.27350    0.77350    0.83820   1.00
C1       0.25000    0.75000    0.64480   1.00
C1       0.25000    0.64480    0.75000   1.00
C1       0.35520    0.75000    0.75000   1.00
C1       0.14480    0.75000    0.75000   1.00
C1       0.25000    0.85520    0.75000   1.00
C1       0.25000    0.75000    0.85520   1.00
O1       1.00000    1.00000    1.00000   1.00
Zn1      0.96720    1.03280    1.03280   1.00
Zn1      1.03280    0.96720    1.03280   1.00
Zn1      1.03280    1.03280    0.96720   1.00
Zn1      0.96720    0.96720    0.96720   1.00
O2       0.97650    1.02350    1.08820   1.00
O2       0.97650    1.08820    1.02350   1.00
O2       0.91180    1.02350    1.02350   1.00
O2       1.02350    0.97650    1.08820   1.00
O2       1.08820    0.97650    1.02350   1.00
O2       1.02350    0.91180    1.02350   1.00
O2       1.02350    1.08820    0.97650   1.00
O2       1.08820    1.02350    0.97650   1.00
O2       1.02350    1.02350    0.91180   1.00
O2       0.91180    0.97650    0.97650   1.00
O2       0.97650    0.91180    0.97650   1.00
O2       0.97650    0.97650    0.91180   1.00
C1       1.00000    1.00000    1.10520   1.00
C1       1.00000    1.10520    1.00000   1.00
C1       0.89480    1.00000    1.00000   1.00
C1       1.10520    1.00000    1.00000   1.00
C1       1.00000    0.89480    1.00000   1.00
C1       1.00000    1.00000    0.89480   1.00
O1       0.50000    0.50000    1.00000   1.00
Zn1      0.46720    0.53280    1.03280   1.00
Zn1      0.53280    0.46720    1.03280   1.00
Zn1      0.53280    0.53280    0.96720   1.00
Zn1      0.46720    0.46720    0.96720   1.00
O2       0.47650    0.52350    1.08820   1.00
O2       0.47650    0.58820    1.02350   1.00
O2       0.41180    0.52350    1.02350   1.00
O2       0.52350    0.47650    1.08820   1.00
O2       0.58820    0.47650    1.02350   1.00
O2       0.52350    0.41180    1.02350   1.00
O2       0.52350    0.58820    0.97650   1.00
O2       0.58820    0.52350    0.97650   1.00
O2       0.52350    0.52350    0.91180   1.00
O2       0.41180    0.47650    0.97650   1.00
O2       0.47650    0.41180    0.97650   1.00
O2       0.47650    0.47650    0.91180   1.00
C1       0.50000    0.50000    1.10520   1.00
C1       0.50000    0.60520    1.00000   1.00
C1       0.39480    0.50000    1.00000   1.00
C1       0.60520    0.50000    1.00000   1.00
C1       0.50000    0.39480    1.00000   1.00
C1       0.50000    0.50000    0.89480   1.00
O1       0.50000    1.00000    0.50000   1.00
Zn1      0.46720    1.03280    0.53280   1.00
Zn1      0.53280    0.96720    0.53280   1.00
Zn1      0.53280    1.03280    0.46720   1.00
Zn1      0.46720    0.96720    0.46720   1.00
O2       0.47650    1.02350    0.58820   1.00
O2       0.47650    1.08820    0.52350   1.00
O2       0.41180    1.02350    0.52350   1.00
O2       0.52350    0.97650    0.58820   1.00
O2       0.58820    0.97650    0.52350   1.00
O2       0.52350    0.91180    0.52350   1.00
O2       0.52350    1.08820    0.47650   1.00
O2       0.58820    1.02350    0.47650   1.00
O2       0.52350    1.02350    0.41180   1.00
O2       0.41180    0.97650    0.47650   1.00
O2       0.47650    0.91180    0.47650   1.00
O2       0.47650    0.97650    0.41180   1.00
C1       0.50000    1.00000    0.60520   1.00
C1       0.50000    1.10520    0.50000   1.00
C1       0.39480    1.00000    0.50000   1.00
C1       0.60520    1.00000    0.50000   1.00
C1       0.50000    0.89480    0.50000   1.00
C1       0.50000    1.00000    0.39480   1.00
O1       1.00000    0.50000    0.50000   1.00
Zn1      0.96720    0.53280    0.53280   1.00
Zn1      1.03280    0.46720    0.53280   1.00
Zn1      1.03280    0.53280    0.46720   1.00
Zn1      0.96720    0.46720    0.46720   1.00
O2       0.97650    0.52350    0.58820   1.00
O2       0.97650    0.58820    0.52350   1.00
O2       0.91180    0.52350    0.52350   1.00
O2       1.02350    0.47650    0.58820   1.00
O2       1.08820    0.47650    0.52350   1.00
O2       1.02350    0.41180    0.52350   1.00
O2       1.02350    0.58820    0.47650   1.00
O2       1.08820    0.52350    0.47650   1.00
O2       1.02350    0.52350    0.41180   1.00
O2       0.91180    0.47650    0.47650   1.00
O2       0.97650    0.41180    0.47650   1.00
O2       0.97650    0.47650    0.41180   1.00
C1       1.00000    0.50000    0.60520   1.00
C1       1.00000    0.60520    0.50000   1.00
C1       0.89480    0.50000    0.50000   1.00
C1       1.10520    0.50000    0.50000   1.00
C1       1.00000    0.39480    0.50000   1.00
C1       1.00000    0.50000    0.39480   1.00
O1       0.50000    0.50000    0.50000   1.00
Zn1      0.53280    0.46720    0.46720   1.00
Zn1      0.46720    0.53280    0.46720   1.00
Zn1      0.46720    0.46720    0.53280   1.00
Zn1      0.53280    0.53280    0.53280   1.00
O2       0.52350    0.47650    0.41180   1.00
O2       0.52350    0.41180    0.47650   1.00
O2       0.58820    0.47650    0.47650   1.00
O2       0.47650    0.52350    0.41180   1.00
O2       0.41180    0.52350    0.47650   1.00
O2       0.47650    0.58820    0.47650   1.00
O2       0.47650    0.41180    0.52350   1.00
O2       0.41180    0.47650    0.52350   1.00
O2       0.47650    0.47650    0.58820   1.00
O2       0.58820    0.52350    0.52350   1.00
O2       0.52350    0.58820    0.52350   1.00
O2       0.52350    0.52350    0.58820   1.00
C1       0.50000    0.50000    0.39480   1.00
C1       0.50000    0.39480    0.50000   1.00
C1       0.60520    0.50000    0.50000   1.00
C1       0.39480    0.50000    0.50000   1.00
C1       0.50000    0.60520    0.50000   1.00
C1       0.50000    0.50000    0.60520   1.00
O1       1.00000    1.00000    0.50000   1.00
Zn1      1.03280    0.96720    0.46720   1.00
Zn1      0.96720    1.03280    0.46720   1.00
Zn1      0.96720    0.96720    0.53280   1.00
Zn1      1.03280    1.03280    0.53280   1.00
O2       1.02350    0.97650    0.41180   1.00
O2       1.02350    0.91180    0.47650   1.00
O2       1.08820    0.97650    0.47650   1.00
O2       0.97650    1.02350    0.41180   1.00
O2       0.91180    1.02350    0.47650   1.00
O2       0.97650    1.08820    0.47650   1.00
O2       0.97650    0.91180    0.52350   1.00
O2       0.91180    0.97650    0.52350   1.00
O2       0.97650    0.97650    0.58820   1.00
O2       1.08820    1.02350    0.52350   1.00
O2       1.02350    1.08820    0.52350   1.00
O2       1.02350    1.02350    0.58820   1.00
C1       1.00000    1.00000    0.39480   1.00
C1       1.00000    0.89480    0.50000   1.00
C1       1.10520    1.00000    0.50000   1.00
C1       0.89480    1.00000    0.50000   1.00
C1       1.00000    1.10520    0.50000   1.00
C1       1.00000    1.00000    0.60520   1.00
O1       1.00000    0.50000    1.00000   1.00
Zn1      1.03280    0.46720    0.96720   1.00
Zn1      0.96720    0.53280    0.96720   1.00
Zn1      0.96720    0.46720    1.03280   1.00
Zn1      1.03280    0.53280    1.03280   1.00
O2       1.02350    0.47650    0.91180   1.00
O2       1.02350    0.41180    0.97650   1.00
O2       1.08820    0.47650    0.97650   1.00
O2       0.97650    0.52350    0.91180   1.00
O2       0.91180    0.52350    0.97650   1.00
O2       0.97650    0.58820    0.97650   1.00
O2       0.97650    0.41180    1.02350   1.00
O2       0.91180    0.47650    1.02350   1.00
O2       0.97650    0.47650    1.08820   1.00
O2       1.08820    0.52350    1.02350   1.00
O2       1.02350    0.58820    1.02350   1.00
O2       1.02350    0.52350    1.08820   1.00
C1       1.00000    0.50000    0.89480   1.00
C1       1.00000    0.39480    1.00000   1.00
C1       1.10520    0.50000    1.00000   1.00
C1       0.89480    0.50000    1.00000   1.00
C1       1.00000    0.60520    1.00000   1.00
C1       1.00000    0.50000    1.10520   1.00
O1       0.50000    1.00000    1.00000   1.00
Zn1      0.53280    0.96720    0.96720   1.00
Zn1      0.46720    1.03280    0.96720   1.00
Zn1      0.46720    0.96720    1.03280   1.00
Zn1      0.53280    1.03280    1.03280   1.00
O2       0.52350    0.97650    0.91180   1.00
O2       0.52350    0.91180    0.97650   1.00
O2       0.58820    0.97650    0.97650   1.00
O2       0.47650    1.02350    0.91180   1.00
O2       0.41180    1.02350    0.97650   1.00
O2       0.47650    1.08820    0.97650   1.00
O2       0.47650    0.91180    1.02350   1.00
O2       0.41180    0.97650    1.02350   1.00
O2       0.47650    0.97650    1.08820   1.00
O2       0.58820    1.02350    1.02350   1.00
O2       0.52350    1.08820    1.02350   1.00
O2       0.52350    1.02350    1.08820   1.00
C1       0.50000    1.00000    0.89480   1.00
C1       0.50000    0.89480    1.00000   1.00
C1       0.60520    1.00000    1.00000   1.00
C1       0.39480    1.00000    1.00000   1.00
C1       0.50000    1.10520    1.00000   1.00
C1       0.50000    1.00000    1.10520   1.00
C4       0.75006    0.75038    0.97915   1.00
C4       0.74994    0.74962    1.02085   1.00
C3       0.78448    0.75769    0.95751   1.00
C3       0.78073    0.73271    1.04252   1.00
C3       0.71575    0.74297    0.95738   1.00
C3       0.71922    0.76665    1.04259   1.00
C2       0.75016    0.74997    0.89482   1.00
C2       0.75016    0.74997    1.10518   1.00
C3a      0.78468    0.75753    0.91599   1.00
C3       0.78076    0.73290    1.08382   1.00
C3       0.71586    0.74278    0.91611   1.00
C3a      0.71914    0.76691    1.08403   1.00
H1       0.81134    0.76386    0.97294   1.00
H1       0.80484    0.71888    1.02750   1.00
C5       0.82187    0.76563    0.89410   1.00
H1       0.80486    0.71961    1.09933   1.00
H1       0.68905    0.73669    0.90056   1.00
C5       0.68553    0.78548    1.10535   1.00
H1       0.69549    0.78097    1.02747   1.00
H1       0.68868    0.73647    0.97230   1.00
H2       0.65848    0.76900    1.09837   1.00
H2       0.68972    0.78380    1.13747   1.00
N1       0.68132    0.82640    1.09395   1.00
C6       0.67243    0.83977    1.05810   1.00
C6       0.68527    0.85755    1.11757   1.00
C6       0.67085    0.87998    1.05873   1.00
C6       0.67902    0.89129    1.09656   1.00
H3       0.66733    0.82152    1.03281   1.00
H3       0.69241    0.85595    1.14831   1.00
H3       0.66440    0.89896    1.03436   1.00
H3       0.68025    0.92081    1.10758   1.00
H2       0.81597    0.76357    0.86228   1.00
H2       0.83264    0.79562    0.90001   1.00
N1       0.85198    0.73764    0.90523   1.00
C6       0.87124    0.71033    0.88078   1.00
C6       0.86843    0.73214    0.94285   1.00
C6       0.89781    0.68951    0.90277   1.00
C6       0.89608    0.70289    0.94091   1.00
H3       0.86571    0.70657    0.84992   1.00
H3       0.86011    0.74818    0.96876   1.00
H3       0.91669    0.66663    0.89205   1.00
H3       0.91333    0.69220    0.96505   1.00
C4       0.75038    0.97915    0.75006   1.00
C4       0.74962    1.02085    0.74994   1.00
C3       0.75769    0.95751    0.78448   1.00
C3       0.73271    1.04252    0.78073   1.00
C3       0.74297    0.95738    0.71575   1.00
C3       0.76665    1.04259    0.71922   1.00
C2       0.74997    0.89482    0.75016   1.00
C2       0.74997    1.10518    0.75016   1.00
C3a      0.75753    0.91599    0.78468   1.00
C3       0.73290    1.08382    0.78076   1.00
C3       0.74278    0.91611    0.71586   1.00
C3a      0.76691    1.08403    0.71914   1.00
H1       0.76386    0.97294    0.81134   1.00
H1       0.71888    1.02750    0.80484   1.00
C5       0.76563    0.89410    0.82187   1.00
H1       0.71961    1.09933    0.80486   1.00
H1       0.73669    0.90056    0.68905   1.00
C5       0.78548    1.10535    0.68553   1.00
H1       0.78097    1.02747    0.69549   1.00
H1       0.73647    0.97230    0.68868   1.00
H2       0.76900    1.09837    0.65848   1.00
H2       0.78380    1.13747    0.68972   1.00
N1       0.82640    1.09395    0.68132   1.00
C6       0.83977    1.05810    0.67243   1.00
C6       0.85755    1.11757    0.68527   1.00
C6       0.87998    1.05873    0.67085   1.00
C6       0.89129    1.09656    0.67902   1.00
H3       0.82152    1.03281    0.66733   1.00
H3       0.85595    1.14831    0.69241   1.00
H3       0.89896    1.03436    0.66440   1.00
H3       0.92081    1.10758    0.68025   1.00
H2       0.76357    0.86228    0.81597   1.00
H2       0.79562    0.90001    0.83264   1.00
N1       0.73764    0.90523    0.85198   1.00
C6       0.71033    0.88078    0.87124   1.00
C6       0.73214    0.94285    0.86843   1.00
C6       0.68951    0.90277    0.89781   1.00
C6       0.70289    0.94091    0.89608   1.00
H3       0.70657    0.84992    0.86571   1.00
H3       0.74818    0.96876    0.86011   1.00
H3       0.66663    0.89205    0.91669   1.00
H3       0.69220    0.96505    0.91333   1.00
C4       0.52085    0.75006    0.74962   1.00
C4       0.47915    0.74994    0.75038   1.00
C3       0.54249    0.78448    0.74231   1.00
C3       0.45748    0.78073    0.76729   1.00
C3       0.54262    0.71575    0.75703   1.00
C3       0.45741    0.71922    0.73335   1.00
C2       0.60518    0.75016    0.75003   1.00
C2       0.39482    0.75016    0.75003   1.00
C3a      0.58401    0.78468    0.74247   1.00
C3       0.41618    0.78076    0.76710   1.00
C3       0.58389    0.71586    0.75722   1.00
C3a      0.41597    0.71914    0.73309   1.00
H1       0.52706    0.81134    0.73614   1.00
H1       0.47250    0.80484    0.78112   1.00
C5       0.60590    0.82187    0.73437   1.00
H1       0.40067    0.80486    0.78039   1.00
H1       0.59944    0.68905    0.76331   1.00
C5       0.39465    0.68553    0.71452   1.00
H1       0.47253    0.69549    0.71903   1.00
H1       0.52770    0.68868    0.76353   1.00
H2       0.40163    0.65848    0.73100   1.00
H2       0.36253    0.68972    0.71620   1.00
N1       0.40605    0.68132    0.67360   1.00
C6       0.44190    0.67243    0.66023   1.00
C6       0.38243    0.68527    0.64245   1.00
C6       0.44127    0.67085    0.62002   1.00
C6       0.40344    0.67902    0.60871   1.00
H3       0.46719    0.66733    0.67848   1.00
H3       0.35169    0.69241    0.64405   1.00
H3       0.46564    0.66440    0.60104   1.00
H3       0.39242    0.68025    0.57919   1.00
H2       0.63772    0.81597    0.73643   1.00
H2       0.59999    0.83264    0.70438   1.00
N1       0.59477    0.85198    0.76236   1.00
C6       0.61922    0.87124    0.78967   1.00
C6       0.55715    0.86843    0.76786   1.00
C6       0.59723    0.89781    0.81049   1.00
C6       0.55909    0.89608    0.79711   1.00
H3       0.65008    0.86571    0.79343   1.00
H3       0.53124    0.86011    0.75182   1.00
H3       0.60795    0.91669    0.83337   1.00
H3       0.53495    0.91333    0.80780   1.00
C4       0.97915    0.75006    0.75038   1.00
C4       1.02085    0.74994    0.74962   1.00
C3       0.95751    0.78448    0.75769   1.00
C3       1.04252    0.78073    0.73271   1.00
C3       0.95738    0.71575    0.74297   1.00
C3       1.04259    0.71922    0.76665   1.00
C2       0.89482    0.75016    0.74997   1.00
C2       1.10518    0.75016    0.74997   1.00
C3a      0.91599    0.78468    0.75753   1.00
C3       1.08382    0.78076    0.73290   1.00
C3       0.91611    0.71586    0.74278   1.00
C3a      1.08403    0.71914    0.76691   1.00
H1       0.97294    0.81134    0.76386   1.00
H1       1.02750    0.80484    0.71888   1.00
C5       0.89410    0.82187    0.76563   1.00
H1       1.09933    0.80486    0.71961   1.00
H1       0.90056    0.68905    0.73669   1.00
C5       1.10535    0.68553    0.78548   1.00
H1       1.02747    0.69549    0.78097   1.00
H1       0.97230    0.68868    0.73647   1.00
H2       1.09837    0.65848    0.76900   1.00
H2       1.13747    0.68972    0.78380   1.00
N1       1.09395    0.68132    0.82640   1.00
C6       1.05810    0.67243    0.83977   1.00
C6       1.11757    0.68527    0.85755   1.00
C6       1.05873    0.67085    0.87998   1.00
C6       1.09656    0.67902    0.89129   1.00
H3       1.03281    0.66733    0.82152   1.00
H3       1.14831    0.69241    0.85595   1.00
H3       1.03436    0.66440    0.89896   1.00
H3       1.10758    0.68025    0.92081   1.00
H2       0.86228    0.81597    0.76357   1.00
H2       0.90001    0.83264    0.79562   1.00
N1       0.90523    0.85198    0.73764   1.00
C6       0.88078    0.87124    0.71033   1.00
C6       0.94285    0.86843    0.73214   1.00
C6       0.90277    0.89781    0.68951   1.00
C6       0.94091    0.89608    0.70289   1.00
H3       0.84992    0.86571    0.70657   1.00
H3       0.96876    0.86011    0.74818   1.00
H3       0.89205    0.91669    0.66663   1.00
H3       0.96505    0.91333    0.69220   1.00
C4       0.74962    0.52085    0.75006   1.00
C4       0.75038    0.47915    0.74994   1.00
C3       0.74231    0.54249    0.78448   1.00
C3       0.76729    0.45748    0.78073   1.00
C3       0.75703    0.54262    0.71575   1.00
C3       0.73335    0.45741    0.71922   1.00
C2       0.75003    0.60518    0.75016   1.00
C2       0.75003    0.39482    0.75016   1.00
C3a      0.74247    0.58401    0.78468   1.00
C3       0.76710    0.41618    0.78076   1.00
C3       0.75722    0.58389    0.71586   1.00
C3a      0.73309    0.41597    0.71914   1.00
H1       0.73614    0.52706    0.81134   1.00
H1       0.78112    0.47250    0.80484   1.00
C5       0.73437    0.60590    0.82187   1.00
H1       0.78039    0.40067    0.80486   1.00
H1       0.76331    0.59944    0.68905   1.00
C5       0.71452    0.39465    0.68553   1.00
H1       0.71903    0.47253    0.69549   1.00
H1       0.76353    0.52770    0.68868   1.00
H2       0.73100    0.40163    0.65848   1.00
H2       0.71620    0.36253    0.68972   1.00
N1       0.67360    0.40605    0.68132   1.00
C6       0.66023    0.44190    0.67243   1.00
C6       0.64245    0.38243    0.68527   1.00
C6       0.62002    0.44127    0.67085   1.00
C6       0.60871    0.40344    0.67902   1.00
H3       0.67848    0.46719    0.66733   1.00
H3       0.64405    0.35169    0.69241   1.00
H3       0.60104    0.46564    0.66440   1.00
H3       0.57919    0.39242    0.68025   1.00
H2       0.73643    0.63772    0.81597   1.00
H2       0.70438    0.59999    0.83264   1.00
N1       0.76236    0.59477    0.85198   1.00
C6       0.78967    0.61922    0.87124   1.00
C6       0.76786    0.55715    0.86843   1.00
C6       0.81049    0.59723    0.89781   1.00
C6       0.79711    0.55909    0.89608   1.00
H3       0.79343    0.65008    0.86571   1.00
H3       0.75182    0.53124    0.86011   1.00
H3       0.83337    0.60795    0.91669   1.00
H3       0.80780    0.53495    0.91333   1.00
C4       0.75006    0.74962    0.52085   1.00
C4       0.74994    0.75038    0.47915   1.00
C3       0.78448    0.74231    0.54249   1.00
C3       0.78073    0.76729    0.45748   1.00
C3       0.71575    0.75703    0.54262   1.00
C3       0.71922    0.73335    0.45741   1.00
C2       0.75016    0.75003    0.60518   1.00
C2       0.75016    0.75003    0.39482   1.00
C3a      0.78468    0.74247    0.58401   1.00
C3       0.78076    0.76710    0.41618   1.00
C3       0.71586    0.75722    0.58389   1.00
C3a      0.71914    0.73309    0.41597   1.00
H1       0.81134    0.73614    0.52706   1.00
H1       0.80484    0.78112    0.47250   1.00
C5       0.82187    0.73437    0.60590   1.00
H1       0.80486    0.78039    0.40067   1.00
H1       0.68905    0.76331    0.59944   1.00
C5       0.68553    0.71452    0.39465   1.00
H1       0.69549    0.71903    0.47253   1.00
H1       0.68868    0.76353    0.52770   1.00
H2       0.65848    0.73100    0.40163   1.00
H2       0.68972    0.71620    0.36253   1.00
N1       0.68132    0.67360    0.40605   1.00
C6       0.67243    0.66023    0.44190   1.00
C6       0.68527    0.64245    0.38243   1.00
C6       0.67085    0.62002    0.44127   1.00
C6       0.67902    0.60871    0.40344   1.00
H3       0.66733    0.67848    0.46719   1.00
H3       0.69241    0.64405    0.35169   1.00
H3       0.66440    0.60104    0.46564   1.00
H3       0.68025    0.57919    0.39242   1.00
H2       0.81597    0.73643    0.63772   1.00
H2       0.83264    0.70438    0.59999   1.00
N1       0.85198    0.76236    0.59477   1.00
C6       0.87124    0.78967    0.61922   1.00
C6       0.86843    0.76786    0.55715   1.00
C6       0.89781    0.81049    0.59723   1.00
C6       0.89608    0.79711    0.55909   1.00
H3       0.86571    0.79343    0.65008   1.00
H3       0.86011    0.75182    0.53124   1.00
H3       0.91669    0.83337    0.60795   1.00
H3       0.91333    0.80780    0.53495   1.00
C4       0.25006    0.25038    0.97915   1.00
C4       0.24994    0.24962    1.02085   1.00
C3       0.28448    0.25769    0.95751   1.00
C3       0.28073    0.23271    1.04252   1.00
C3       0.21575    0.24297    0.95738   1.00
C3       0.21922    0.26665    1.04259   1.00
C2       0.25016    0.24997    0.89482   1.00
C2       0.25016    0.24997    1.10518   1.00
C3a      0.28468    0.25753    0.91599   1.00
C3       0.28076    0.23290    1.08382   1.00
C3       0.21586    0.24278    0.91611   1.00
C3a      0.21914    0.26691    1.08403   1.00
H1       0.31134    0.26386    0.97294   1.00
H1       0.30484    0.21888    1.02750   1.00
C5       0.32187    0.26563    0.89410   1.00
H1       0.30486    0.21961    1.09933   1.00
H1       0.18905    0.23669    0.90056   1.00
C5       0.18553    0.28548    1.10535   1.00
H1       0.19549    0.28097    1.02747   1.00
H1       0.18868    0.23647    0.97230   1.00
H2       0.15848    0.26900    1.09837   1.00
H2       0.18972    0.28380    1.13747   1.00
N1       0.18132    0.32640    1.09395   1.00
C6       0.17243    0.33977    1.05810   1.00
C6       0.18527    0.35755    1.11757   1.00
C6       0.17085    0.37998    1.05873   1.00
C6       0.17902    0.39129    1.09656   1.00
H3       0.16733    0.32152    1.03281   1.00
H3       0.19241    0.35595    1.14831   1.00
H3       0.16440    0.39896    1.03436   1.00
H3       0.18025    0.42081    1.10758   1.00
H2       0.31597    0.26357    0.86228   1.00
H2       0.33264    0.29562    0.90001   1.00
N1       0.35198    0.23764    0.90523   1.00
C6       0.37124    0.21033    0.88078   1.00
C6       0.36843    0.23214    0.94285   1.00
C6       0.39781    0.18951    0.90277   1.00
C6       0.39608    0.20289    0.94091   1.00
H3       0.36571    0.20657    0.84992   1.00
H3       0.36011    0.24818    0.96876   1.00
H3       0.41669    0.16663    0.89205   1.00
H3       0.41333    0.19220    0.96505   1.00
C4       0.25038    0.47915    0.75006   1.00
C4       0.24962    0.52085    0.74994   1.00
C3       0.25769    0.45751    0.78448   1.00
C3       0.23271    0.54252    0.78073   1.00
C3       0.24297    0.45738    0.71575   1.00
C3       0.26665    0.54259    0.71922   1.00
C2       0.24997    0.39482    0.75016   1.00
C2       0.24997    0.60518    0.75016   1.00
C3a      0.25753    0.41599    0.78468   1.00
C3       0.23290    0.58382    0.78076   1.00
C3       0.24278    0.41611    0.71586   1.00
C3a      0.26691    0.58403    0.71914   1.00
H1       0.26386    0.47294    0.81134   1.00
H1       0.21888    0.52750    0.80484   1.00
C5       0.26563    0.39410    0.82187   1.00
H1       0.21961    0.59933    0.80486   1.00
H1       0.23669    0.40056    0.68905   1.00
C5       0.28548    0.60535    0.68553   1.00
H1       0.28097    0.52747    0.69549   1.00
H1       0.23647    0.47230    0.68868   1.00
H2       0.26900    0.59837    0.65848   1.00
H2       0.28380    0.63747    0.68972   1.00
N1       0.32640    0.59395    0.68132   1.00
C6       0.33977    0.55810    0.67243   1.00
C6       0.35755    0.61757    0.68527   1.00
C6       0.37998    0.55873    0.67085   1.00
C6       0.39129    0.59656    0.67902   1.00
H3       0.32152    0.53281    0.66733   1.00
H3       0.35595    0.64831    0.69241   1.00
H3       0.39896    0.53436    0.66440   1.00
H3       0.42081    0.60758    0.68025   1.00
H2       0.26357    0.36228    0.81597   1.00
H2       0.29562    0.40001    0.83264   1.00
N1       0.23764    0.40523    0.85198   1.00
C6       0.21033    0.38078    0.87124   1.00
C6       0.23214    0.44285    0.86843   1.00
C6       0.18951    0.40277    0.89781   1.00
C6       0.20289    0.44091    0.89608   1.00
H3       0.20657    0.34992    0.86571   1.00
H3       0.24818    0.46876    0.86011   1.00
H3       0.16663    0.39205    0.91669   1.00
H3       0.19220    0.46505    0.91333   1.00
C4       0.02085    0.25006    0.74962   1.00
C4       -0.02085   0.24994    0.75038   1.00
C3       0.04249    0.28448    0.74231   1.00
C3       -0.04252   0.28073    0.76729   1.00
C3       0.04262    0.21575    0.75703   1.00
C3       -0.04259   0.21922    0.73335   1.00
C2       0.10518    0.25016    0.75003   1.00
C2       -0.10518   0.25016    0.75003   1.00
C3a      0.08401    0.28468    0.74247   1.00
C3       -0.08382   0.28076    0.76710   1.00
C3       0.08389    0.21586    0.75722   1.00
C3a      -0.08403   0.21914    0.73309   1.00
H1       0.02706    0.31134    0.73614   1.00
H1       -0.02750   0.30484    0.78112   1.00
C5       0.10590    0.32187    0.73437   1.00
H1       -0.09933   0.30486    0.78039   1.00
H1       0.09944    0.18905    0.76331   1.00
C5       -0.10535   0.18553    0.71452   1.00
H1       -0.02747   0.19549    0.71903   1.00
H1       0.02770    0.18868    0.76353   1.00
H2       -0.09837   0.15848    0.73100   1.00
H2       -0.13747   0.18972    0.71620   1.00
N1       -0.09395   0.18132    0.67360   1.00
C6       -0.05810   0.17243    0.66023   1.00
C6       -0.11757   0.18527    0.64245   1.00
C6       -0.05873   0.17085    0.62002   1.00
C6       -0.09656   0.17902    0.60871   1.00
H3       -0.03281   0.16733    0.67848   1.00
H3       -0.14831   0.19241    0.64405   1.00
H3       -0.03436   0.16440    0.60104   1.00
H3       -0.10758   0.18025    0.57919   1.00
H2       0.13772    0.31597    0.73643   1.00
H2       0.09999    0.33264    0.70438   1.00
N1       0.09477    0.35198    0.76236   1.00
C6       0.11922    0.37124    0.78967   1.00
C6       0.05715    0.36843    0.76786   1.00
C6       0.09723    0.39781    0.81049   1.00
C6       0.05909    0.39608    0.79711   1.00
H3       0.15008    0.36571    0.79343   1.00
H3       0.03124    0.36011    0.75182   1.00
H3       0.10795    0.41669    0.83337   1.00
H3       0.03495    0.41333    0.80780   1.00
C4       0.47915    0.25006    0.75038   1.00
C4       0.52085    0.24994    0.74962   1.00
C3       0.45751    0.28448    0.75769   1.00
C3       0.54252    0.28073    0.73271   1.00
C3       0.45738    0.21575    0.74297   1.00
C3       0.54259    0.21922    0.76665   1.00
C2       0.39482    0.25016    0.74997   1.00
C2       0.60518    0.25016    0.74997   1.00
C3a      0.41599    0.28468    0.75753   1.00
C3       0.58382    0.28076    0.73290   1.00
C3       0.41611    0.21586    0.74278   1.00
C3a      0.58403    0.21914    0.76691   1.00
H1       0.47294    0.31134    0.76386   1.00
H1       0.52750    0.30484    0.71888   1.00
C5       0.39410    0.32187    0.76563   1.00
H1       0.59933    0.30486    0.71961   1.00
H1       0.40056    0.18905    0.73669   1.00
C5       0.60535    0.18553    0.78548   1.00
H1       0.52747    0.19549    0.78097   1.00
H1       0.47230    0.18868    0.73647   1.00
H2       0.59837    0.15848    0.76900   1.00
H2       0.63747    0.18972    0.78380   1.00
N1       0.59395    0.18132    0.82640   1.00
C6       0.55810    0.17243    0.83977   1.00
C6       0.61757    0.18527    0.85755   1.00
C6       0.55873    0.17085    0.87998   1.00
C6       0.59656    0.17902    0.89129   1.00
H3       0.53281    0.16733    0.82152   1.00
H3       0.64831    0.19241    0.85595   1.00
H3       0.53436    0.16440    0.89896   1.00
H3       0.60758    0.18025    0.92081   1.00
H2       0.36228    0.31597    0.76357   1.00
H2       0.40001    0.33264    0.79562   1.00
N1       0.40523    0.35198    0.73764   1.00
C6       0.38078    0.37124    0.71033   1.00
C6       0.44285    0.36843    0.73214   1.00
C6       0.40277    0.39781    0.68951   1.00
C6       0.44091    0.39608    0.70289   1.00
H3       0.34992    0.36571    0.70657   1.00
H3       0.46876    0.36011    0.74818   1.00
H3       0.39205    0.41669    0.66663   1.00
H3       0.46505    0.41333    0.69220   1.00
C4       0.24962    0.02085    0.75006   1.00
C4       0.25038    -0.02085   0.74994   1.00
C3       0.24231    0.04249    0.78448   1.00
C3       0.26729    -0.04252   0.78073   1.00
C3       0.25703    0.04262    0.71575   1.00
C3       0.23335    -0.04259   0.71922   1.00
C2       0.25003    0.10518    0.75016   1.00
C2       0.25003    -0.10518   0.75016   1.00
C3a      0.24247    0.08401    0.78468   1.00
C3       0.26710    -0.08382   0.78076   1.00
C3       0.25722    0.08389    0.71586   1.00
C3a      0.23309    -0.08403   0.71914   1.00
H1       0.23614    0.02706    0.81134   1.00
H1       0.28112    -0.02750   0.80484   1.00
C5       0.23437    0.10590    0.82187   1.00
H1       0.28039    -0.09933   0.80486   1.00
H1       0.26331    0.09944    0.68905   1.00
C5       0.21452    -0.10535   0.68553   1.00
H1       0.21903    -0.02747   0.69549   1.00
H1       0.26353    0.02770    0.68868   1.00
H2       0.23100    -0.09837   0.65848   1.00
H2       0.21620    -0.13747   0.68972   1.00
N1       0.17360    -0.09395   0.68132   1.00
C6       0.16023    -0.05810   0.67243   1.00
C6       0.14245    -0.11757   0.68527   1.00
C6       0.12002    -0.05873   0.67085   1.00
C6       0.10871    -0.09656   0.67902   1.00
H3       0.17848    -0.03281   0.66733   1.00
H3       0.14405    -0.14831   0.69241   1.00
H3       0.10104    -0.03436   0.66440   1.00
H3       0.07919    -0.10758   0.68025   1.00
H2       0.23643    0.13772    0.81597   1.00
H2       0.20438    0.09999    0.83264   1.00
N1       0.26236    0.09477    0.85198   1.00
C6       0.28967    0.11922    0.87124   1.00
C6       0.26786    0.05715    0.86843   1.00
C6       0.31049    0.09723    0.89781   1.00
C6       0.29711    0.05909    0.89608   1.00
H3       0.29343    0.15008    0.86571   1.00
H3       0.25182    0.03124    0.86011   1.00
H3       0.33337    0.10795    0.91669   1.00
H3       0.30780    0.03495    0.91333   1.00
C4       0.25006    0.24962    0.52085   1.00
C4       0.24994    0.25038    0.47915   1.00
C3       0.28448    0.24231    0.54249   1.00
C3       0.28073    0.26729    0.45748   1.00
C3       0.21575    0.25703    0.54262   1.00
C3       0.21922    0.23335    0.45741   1.00
C2       0.25016    0.25003    0.60518   1.00
C2       0.25016    0.25003    0.39482   1.00
C3a      0.28468    0.24247    0.58401   1.00
C3       0.28076    0.26710    0.41618   1.00
C3       0.21586    0.25722    0.58389   1.00
C3a      0.21914    0.23309    0.41597   1.00
H1       0.31134    0.23614    0.52706   1.00
H1       0.30484    0.28112    0.47250   1.00
C5       0.32187    0.23437    0.60590   1.00
H1       0.30486    0.28039    0.40067   1.00
H1       0.18905    0.26331    0.59944   1.00
C5       0.18553    0.21452    0.39465   1.00
H1       0.19549    0.21903    0.47253   1.00
H1       0.18868    0.26353    0.52770   1.00
H2       0.15848    0.23100    0.40163   1.00
H2       0.18972    0.21620    0.36253   1.00
N1       0.18132    0.17360    0.40605   1.00
C6       0.17243    0.16023    0.44190   1.00
C6       0.18527    0.14245    0.38243   1.00
C6       0.17085    0.12002    0.44127   1.00
C6       0.17902    0.10871    0.40344   1.00
H3       0.16733    0.17848    0.46719   1.00
H3       0.19241    0.14405    0.35169   1.00
H3       0.16440    0.10104    0.46564   1.00
H3       0.18025    0.07919    0.39242   1.00
H2       0.31597    0.23643    0.63772   1.00
H2       0.33264    0.20438    0.59999   1.00
N1       0.35198    0.26236    0.59477   1.00
C6       0.37124    0.28967    0.61922   1.00
C6       0.36843    0.26786    0.55715   1.00
C6       0.39781    0.31049    0.59723   1.00
C6       0.39608    0.29711    0.55909   1.00
H3       0.36571    0.29343    0.65008   1.00
H3       0.36011    0.25182    0.53124   1.00
H3       0.41669    0.33337    0.60795   1.00
H3       0.41333    0.30780    0.53495   1.00
C4       0.25006    0.75038    0.47915   1.00
C4       0.24994    0.74962    0.52085   1.00
C3       0.28448    0.75769    0.45751   1.00
C3       0.28073    0.73271    0.54252   1.00
C3       0.21575    0.74297    0.45738   1.00
C3       0.21922    0.76665    0.54259   1.00
C2       0.25016    0.74997    0.39482   1.00
C2       0.25016    0.74997    0.60518   1.00
C3a      0.28468    0.75753    0.41599   1.00
C3       0.28076    0.73290    0.58382   1.00
C3       0.21586    0.74278    0.41611   1.00
C3a      0.21914    0.76691    0.58403   1.00
H1       0.31134    0.76386    0.47294   1.00
H1       0.30484    0.71888    0.52750   1.00
C5       0.32187    0.76563    0.39410   1.00
H1       0.30486    0.71961    0.59933   1.00
H1       0.18905    0.73669    0.40056   1.00
C5       0.18553    0.78548    0.60535   1.00
H1       0.19549    0.78097    0.52747   1.00
H1       0.18868    0.73647    0.47230   1.00
H2       0.15848    0.76900    0.59837   1.00
H2       0.18972    0.78380    0.63747   1.00
N1       0.18132    0.82640    0.59395   1.00
C6       0.17243    0.83977    0.55810   1.00
C6       0.18527    0.85755    0.61757   1.00
C6       0.17085    0.87998    0.55873   1.00
C6       0.17902    0.89129    0.59656   1.00
H3       0.16733    0.82152    0.53281   1.00
H3       0.19241    0.85595    0.64831   1.00
H3       0.16440    0.89896    0.53436   1.00
H3       0.18025    0.92081    0.60758   1.00
H2       0.31597    0.76357    0.36228   1.00
H2       0.33264    0.79562    0.40001   1.00
N1       0.35198    0.73764    0.40523   1.00
C6       0.37124    0.71033    0.38078   1.00
C6       0.36843    0.73214    0.44285   1.00
C6       0.39781    0.68951    0.40277   1.00
C6       0.39608    0.70289    0.44091   1.00
H3       0.36571    0.70657    0.34992   1.00
H3       0.36011    0.74818    0.46876   1.00
H3       0.41669    0.66663    0.39205   1.00
H3       0.41333    0.69220    0.46505   1.00
C4       0.25038    0.97915    0.25006   1.00
C4       0.24962    1.02085    0.24994   1.00
C3       0.25769    0.95751    0.28448   1.00
C3       0.23271    1.04252    0.28073   1.00
C3       0.24297    0.95738    0.21575   1.00
C3       0.26665    1.04259    0.21922   1.00
C2       0.24997    0.89482    0.25016   1.00
C2       0.24997    1.10518    0.25016   1.00
C3a      0.25753    0.91599    0.28468   1.00
C3       0.23290    1.08382    0.28076   1.00
C3       0.24278    0.91611    0.21586   1.00
C3a      0.26691    1.08403    0.21914   1.00
H1       0.26386    0.97294    0.31134   1.00
H1       0.21888    1.02750    0.30484   1.00
C5       0.26563    0.89410    0.32187   1.00
H1       0.21961    1.09933    0.30486   1.00
H1       0.23669    0.90056    0.18905   1.00
C5       0.28548    1.10535    0.18553   1.00
H1       0.28097    1.02747    0.19549   1.00
H1       0.23647    0.97230    0.18868   1.00
H2       0.26900    1.09837    0.15848   1.00
H2       0.28380    1.13747    0.18972   1.00
N1       0.32640    1.09395    0.18132   1.00
C6       0.33977    1.05810    0.17243   1.00
C6       0.35755    1.11757    0.18527   1.00
C6       0.37998    1.05873    0.17085   1.00
C6       0.39129    1.09656    0.17902   1.00
H3       0.32152    1.03281    0.16733   1.00
H3       0.35595    1.14831    0.19241   1.00
H3       0.39896    1.03436    0.16440   1.00
H3       0.42081    1.10758    0.18025   1.00
H2       0.26357    0.86228    0.31597   1.00
H2       0.29562    0.90001    0.33264   1.00
N1       0.23764    0.90523    0.35198   1.00
C6       0.21033    0.88078    0.37124   1.00
C6       0.23214    0.94285    0.36843   1.00
C6       0.18951    0.90277    0.39781   1.00
C6       0.20289    0.94091    0.39608   1.00
H3       0.20657    0.84992    0.36571   1.00
H3       0.24818    0.96876    0.36011   1.00
H3       0.16663    0.89205    0.41669   1.00
H3       0.19220    0.96505    0.41333   1.00
C4       0.02085    0.75006    0.24962   1.00
C4       -0.02085   0.74994    0.25038   1.00
C3       0.04249    0.78448    0.24231   1.00
C3       -0.04252   0.78073    0.26729   1.00
C3       0.04262    0.71575    0.25703   1.00
C3       -0.04259   0.71922    0.23335   1.00
C2       0.10518    0.75016    0.25003   1.00
C2       -0.10518   0.75016    0.25003   1.00
C3a      0.08401    0.78468    0.24247   1.00
C3       -0.08382   0.78076    0.26710   1.00
C3       0.08389    0.71586    0.25722   1.00
C3a      -0.08403   0.71914    0.23309   1.00
H1       0.02706    0.81134    0.23614   1.00
H1       -0.02750   0.80484    0.28112   1.00
C5       0.10590    0.82187    0.23437   1.00
H1       -0.09933   0.80486    0.28039   1.00
H1       0.09944    0.68905    0.26331   1.00
C5       -0.10535   0.68553    0.21452   1.00
H1       -0.02747   0.69549    0.21903   1.00
H1       0.02770    0.68868    0.26353   1.00
H2       -0.09837   0.65848    0.23100   1.00
H2       -0.13747   0.68972    0.21620   1.00
N1       -0.09395   0.68132    0.17360   1.00
C6       -0.05810   0.67243    0.16023   1.00
C6       -0.11757   0.68527    0.14245   1.00
C6       -0.05873   0.67085    0.12002   1.00
C6       -0.09656   0.67902    0.10871   1.00
H3       -0.03281   0.66733    0.17848   1.00
H3       -0.14831   0.69241    0.14405   1.00
H3       -0.03436   0.66440    0.10104   1.00
H3       -0.10758   0.68025    0.07919   1.00
H2       0.13772    0.81597    0.23643   1.00
H2       0.09999    0.83264    0.20438   1.00
N1       0.09477    0.85198    0.26236   1.00
C6       0.11922    0.87124    0.28967   1.00
C6       0.05715    0.86843    0.26786   1.00
C6       0.09723    0.89781    0.31049   1.00
C6       0.05909    0.89608    0.29711   1.00
H3       0.15008    0.86571    0.29343   1.00
H3       0.03124    0.86011    0.25182   1.00
H3       0.10795    0.91669    0.33337   1.00
H3       0.03495    0.91333    0.30780   1.00
C4       0.47915    0.75006    0.25038   1.00
C4       0.52085    0.74994    0.24962   1.00
C3       0.45751    0.78448    0.25769   1.00
C3       0.54252    0.78073    0.23271   1.00
C3       0.45738    0.71575    0.24297   1.00
C3       0.54259    0.71922    0.26665   1.00
C2       0.39482    0.75016    0.24997   1.00
C2       0.60518    0.75016    0.24997   1.00
C3a      0.41599    0.78468    0.25753   1.00
C3       0.58382    0.78076    0.23290   1.00
C3       0.41611    0.71586    0.24278   1.00
C3a      0.58403    0.71914    0.26691   1.00
H1       0.47294    0.81134    0.26386   1.00
H1       0.52750    0.80484    0.21888   1.00
C5       0.39410    0.82187    0.26563   1.00
H1       0.59933    0.80486    0.21961   1.00
H1       0.40056    0.68905    0.23669   1.00
C5       0.60535    0.68553    0.28548   1.00
H1       0.52747    0.69549    0.28097   1.00
H1       0.47230    0.68868    0.23647   1.00
H2       0.59837    0.65848    0.26900   1.00
H2       0.63747    0.68972    0.28380   1.00
N1       0.59395    0.68132    0.32640   1.00
C6       0.55810    0.67243    0.33977   1.00
C6       0.61757    0.68527    0.35755   1.00
C6       0.55873    0.67085    0.37998   1.00
C6       0.59656    0.67902    0.39129   1.00
H3       0.53281    0.66733    0.32152   1.00
H3       0.64831    0.69241    0.35595   1.00
H3       0.53436    0.66440    0.39896   1.00
H3       0.60758    0.68025    0.42081   1.00
H2       0.36228    0.81597    0.26357   1.00
H2       0.40001    0.83264    0.29562   1.00
N1       0.40523    0.85198    0.23764   1.00
C6       0.38078    0.87124    0.21033   1.00
C6       0.44285    0.86843    0.23214   1.00
C6       0.40277    0.89781    0.18951   1.00
C6       0.44091    0.89608    0.20289   1.00
H3       0.34992    0.86571    0.20657   1.00
H3       0.46876    0.86011    0.24818   1.00
H3       0.39205    0.91669    0.16663   1.00
H3       0.46505    0.91333    0.19220   1.00
C4       0.24962    0.52085    0.25006   1.00
C4       0.25038    0.47915    0.24994   1.00
C3       0.24231    0.54249    0.28448   1.00
C3       0.26729    0.45748    0.28073   1.00
C3       0.25703    0.54262    0.21575   1.00
C3       0.23335    0.45741    0.21922   1.00
C2       0.25003    0.60518    0.25016   1.00
C2       0.25003    0.39482    0.25016   1.00
C3a      0.24247    0.58401    0.28468   1.00
C3       0.26710    0.41618    0.28076   1.00
C3       0.25722    0.58389    0.21586   1.00
C3a      0.23309    0.41597    0.21914   1.00
H1       0.23614    0.52706    0.31134   1.00
H1       0.28112    0.47250    0.30484   1.00
C5       0.23437    0.60590    0.32187   1.00
H1       0.28039    0.40067    0.30486   1.00
H1       0.26331    0.59944    0.18905   1.00
C5       0.21452    0.39465    0.18553   1.00
H1       0.21903    0.47253    0.19549   1.00
H1       0.26353    0.52770    0.18868   1.00
H2       0.23100    0.40163    0.15848   1.00
H2       0.21620    0.36253    0.18972   1.00
N1       0.17360    0.40605    0.18132   1.00
C6       0.16023    0.44190    0.17243   1.00
C6       0.14245    0.38243    0.18527   1.00
C6       0.12002    0.44127    0.17085   1.00
C6       0.10871    0.40344    0.17902   1.00
H3       0.17848    0.46719    0.16733   1.00
H3       0.14405    0.35169    0.19241   1.00
H3       0.10104    0.46564    0.16440   1.00
H3       0.07919    0.39242    0.18025   1.00
H2       0.23643    0.63772    0.31597   1.00
H2       0.20438    0.59999    0.33264   1.00
N1       0.26236    0.59477    0.35198   1.00
C6       0.28967    0.61922    0.37124   1.00
C6       0.26786    0.55715    0.36843   1.00
C6       0.31049    0.59723    0.39781   1.00
C6       0.29711    0.55909    0.39608   1.00
H3       0.29343    0.65008    0.36571   1.00
H3       0.25182    0.53124    0.36011   1.00
H3       0.33337    0.60795    0.41669   1.00
H3       0.30780    0.53495    0.41333   1.00
C4       0.25006    0.74962    0.02085   1.00
C4       0.24994    0.75038    -0.02085   1.00
C3       0.28448    0.74231    0.04249   1.00
C3       0.28073    0.76729    -0.04252   1.00
C3       0.21575    0.75703    0.04262   1.00
C3       0.21922    0.73335    -0.04259   1.00
C2       0.25016    0.75003    0.10518   1.00
C2       0.25016    0.75003    -0.10518   1.00
C3a      0.28468    0.74247    0.08401   1.00
C3       0.28076    0.76710    -0.08382   1.00
C3       0.21586    0.75722    0.08389   1.00
C3a      0.21914    0.73309    -0.08403   1.00
H1       0.31134    0.73614    0.02706   1.00
H1       0.30484    0.78112    -0.02750   1.00
C5       0.32187    0.73437    0.10590   1.00
H1       0.30486    0.78039    -0.09933   1.00
H1       0.18905    0.76331    0.09944   1.00
C5       0.18553    0.71452    -0.10535   1.00
H1       0.19549    0.71903    -0.02747   1.00
H1       0.18868    0.76353    0.02770   1.00
H2       0.15848    0.73100    -0.09837   1.00
H2       0.18972    0.71620    -0.13747   1.00
N1       0.18132    0.67360    -0.09395   1.00
C6       0.17243    0.66023    -0.05810   1.00
C6       0.18527    0.64245    -0.11757   1.00
C6       0.17085    0.62002    -0.05873   1.00
C6       0.17902    0.60871    -0.09656   1.00
H3       0.16733    0.67848    -0.03281   1.00
H3       0.19241    0.64405    -0.14831   1.00
H3       0.16440    0.60104    -0.03436   1.00
H3       0.18025    0.57919    -0.10758   1.00
H2       0.31597    0.73643    0.13772   1.00
H2       0.33264    0.70438    0.09999   1.00
N1       0.35198    0.76236    0.09477   1.00
C6       0.37124    0.78967    0.11922   1.00
C6       0.36843    0.76786    0.05715   1.00
C6       0.39781    0.81049    0.09723   1.00
C6       0.39608    0.79711    0.05909   1.00
H3       0.36571    0.79343    0.15008   1.00
H3       0.36011    0.75182    0.03124   1.00
H3       0.41669    0.83337    0.10795   1.00
H3       0.41333    0.80780    0.03495   1.00
C4       0.75006    0.25038    0.47915   1.00
C4       0.74994    0.24962    0.52085   1.00
C3       0.78448    0.25769    0.45751   1.00
C3       0.78073    0.23271    0.54252   1.00
C3       0.71575    0.24297    0.45738   1.00
C3       0.71922    0.26665    0.54259   1.00
C2       0.75016    0.24997    0.39482   1.00
C2       0.75016    0.24997    0.60518   1.00
C3a      0.78468    0.25753    0.41599   1.00
C3       0.78076    0.23290    0.58382   1.00
C3       0.71586    0.24278    0.41611   1.00
C3a      0.71914    0.26691    0.58403   1.00
H1       0.81134    0.26386    0.47294   1.00
H1       0.80484    0.21888    0.52750   1.00
C5       0.82187    0.26563    0.39410   1.00
H1       0.80486    0.21961    0.59933   1.00
H1       0.68905    0.23669    0.40056   1.00
C5       0.68553    0.28548    0.60535   1.00
H1       0.69549    0.28097    0.52747   1.00
H1       0.68868    0.23647    0.47230   1.00
H2       0.65848    0.26900    0.59837   1.00
H2       0.68972    0.28380    0.63747   1.00
N1       0.68132    0.32640    0.59395   1.00
C6       0.67243    0.33977    0.55810   1.00
C6       0.68527    0.35755    0.61757   1.00
C6       0.67085    0.37998    0.55873   1.00
C6       0.67902    0.39129    0.59656   1.00
H3       0.66733    0.32152    0.53281   1.00
H3       0.69241    0.35595    0.64831   1.00
H3       0.66440    0.39896    0.53436   1.00
H3       0.68025    0.42081    0.60758   1.00
H2       0.81597    0.26357    0.36228   1.00
H2       0.83264    0.29562    0.40001   1.00
N1       0.85198    0.23764    0.40523   1.00
C6       0.87124    0.21033    0.38078   1.00
C6       0.86843    0.23214    0.44285   1.00
C6       0.89781    0.18951    0.40277   1.00
C6       0.89608    0.20289    0.44091   1.00
H3       0.86571    0.20657    0.34992   1.00
H3       0.86011    0.24818    0.46876   1.00
H3       0.91669    0.16663    0.39205   1.00
H3       0.91333    0.19220    0.46505   1.00
C4       0.75038    0.47915    0.25006   1.00
C4       0.74962    0.52085    0.24994   1.00
C3       0.75769    0.45751    0.28448   1.00
C3       0.73271    0.54252    0.28073   1.00
C3       0.74297    0.45738    0.21575   1.00
C3       0.76665    0.54259    0.21922   1.00
C2       0.74997    0.39482    0.25016   1.00
C2       0.74997    0.60518    0.25016   1.00
C3a      0.75753    0.41599    0.28468   1.00
C3       0.73290    0.58382    0.28076   1.00
C3       0.74278    0.41611    0.21586   1.00
C3a      0.76691    0.58403    0.21914   1.00
H1       0.76386    0.47294    0.31134   1.00
H1       0.71888    0.52750    0.30484   1.00
C5       0.76563    0.39410    0.32187   1.00
H1       0.71961    0.59933    0.30486   1.00
H1       0.73669    0.40056    0.18905   1.00
C5       0.78548    0.60535    0.18553   1.00
H1       0.78097    0.52747    0.19549   1.00
H1       0.73647    0.47230    0.18868   1.00
H2       0.76900    0.59837    0.15848   1.00
H2       0.78380    0.63747    0.18972   1.00
N1       0.82640    0.59395    0.18132   1.00
C6       0.83977    0.55810    0.17243   1.00
C6       0.85755    0.61757    0.18527   1.00
C6       0.87998    0.55873    0.17085   1.00
C6       0.89129    0.59656    0.17902   1.00
H3       0.82152    0.53281    0.16733   1.00
H3       0.85595    0.64831    0.19241   1.00
H3       0.89896    0.53436    0.16440   1.00
H3       0.92081    0.60758    0.18025   1.00
H2       0.76357    0.36228    0.31597   1.00
H2       0.79562    0.40001    0.33264   1.00
N1       0.73764    0.40523    0.35198   1.00
C6       0.71033    0.38078    0.37124   1.00
C6       0.73214    0.44285    0.36843   1.00
C6       0.68951    0.40277    0.39781   1.00
C6       0.70289    0.44091    0.39608   1.00
H3       0.70657    0.34992    0.36571   1.00
H3       0.74818    0.46876    0.36011   1.00
H3       0.66663    0.39205    0.41669   1.00
H3       0.69220    0.46505    0.41333   1.00
C4       0.52085    0.25006    0.24962   1.00
C4       0.47915    0.24994    0.25038   1.00
C3       0.54249    0.28448    0.24231   1.00
C3       0.45748    0.28073    0.26729   1.00
C3       0.54262    0.21575    0.25703   1.00
C3       0.45741    0.21922    0.23335   1.00
C2       0.60518    0.25016    0.25003   1.00
C2       0.39482    0.25016    0.25003   1.00
C3a      0.58401    0.28468    0.24247   1.00
C3       0.41618    0.28076    0.26710   1.00
C3       0.58389    0.21586    0.25722   1.00
C3a      0.41597    0.21914    0.23309   1.00
H1       0.52706    0.31134    0.23614   1.00
H1       0.47250    0.30484    0.28112   1.00
C5       0.60590    0.32187    0.23437   1.00
H1       0.40067    0.30486    0.28039   1.00
H1       0.59944    0.18905    0.26331   1.00
C5       0.39465    0.18553    0.21452   1.00
H1       0.47253    0.19549    0.21903   1.00
H1       0.52770    0.18868    0.26353   1.00
H2       0.40163    0.15848    0.23100   1.00
H2       0.36253    0.18972    0.21620   1.00
N1       0.40605    0.18132    0.17360   1.00
C6       0.44190    0.17243    0.16023   1.00
C6       0.38243    0.18527    0.14245   1.00
C6       0.44127    0.17085    0.12002   1.00
C6       0.40344    0.17902    0.10871   1.00
H3       0.46719    0.16733    0.17848   1.00
H3       0.35169    0.19241    0.14405   1.00
H3       0.46564    0.16440    0.10104   1.00
H3       0.39242    0.18025    0.07919   1.00
H2       0.63772    0.31597    0.23643   1.00
H2       0.59999    0.33264    0.20438   1.00
N1       0.59477    0.35198    0.26236   1.00
C6       0.61922    0.37124    0.28967   1.00
C6       0.55715    0.36843    0.26786   1.00
C6       0.59723    0.39781    0.31049   1.00
C6       0.55909    0.39608    0.29711   1.00
H3       0.65008    0.36571    0.29343   1.00
H3       0.53124    0.36011    0.25182   1.00
H3       0.60795    0.41669    0.33337   1.00
H3       0.53495    0.41333    0.30780   1.00
C4       0.97915    0.25006    0.25038   1.00
C4       1.02085    0.24994    0.24962   1.00
C3       0.95751    0.28448    0.25769   1.00
C3       1.04252    0.28073    0.23271   1.00
C3       0.95738    0.21575    0.24297   1.00
C3       1.04259    0.21922    0.26665   1.00
C2       0.89482    0.25016    0.24997   1.00
C2       1.10518    0.25016    0.24997   1.00
C3a      0.91599    0.28468    0.25753   1.00
C3       1.08382    0.28076    0.23290   1.00
C3       0.91611    0.21586    0.24278   1.00
C3a      1.08403    0.21914    0.26691   1.00
H1       0.97294    0.31134    0.26386   1.00
H1       1.02750    0.30484    0.21888   1.00
C5       0.89410    0.32187    0.26563   1.00
H1       1.09933    0.30486    0.21961   1.00
H1       0.90056    0.18905    0.23669   1.00
C5       1.10535    0.18553    0.28548   1.00
H1       1.02747    0.19549    0.28097   1.00
H1       0.97230    0.18868    0.23647   1.00
H2       1.09837    0.15848    0.26900   1.00
H2       1.13747    0.18972    0.28380   1.00
N1       1.09395    0.18132    0.32640   1.00
C6       1.05810    0.17243    0.33977   1.00
C6       1.11757    0.18527    0.35755   1.00
C6       1.05873    0.17085    0.37998   1.00
C6       1.09656    0.17902    0.39129   1.00
H3       1.03281    0.16733    0.32152   1.00
H3       1.14831    0.19241    0.35595   1.00
H3       1.03436    0.16440    0.39896   1.00
H3       1.10758    0.18025    0.42081   1.00
H2       0.86228    0.31597    0.26357   1.00
H2       0.90001    0.33264    0.29562   1.00
N1       0.90523    0.35198    0.23764   1.00
C6       0.88078    0.37124    0.21033   1.00
C6       0.94285    0.36843    0.23214   1.00
C6       0.90277    0.39781    0.18951   1.00
C6       0.94091    0.39608    0.20289   1.00
H3       0.84992    0.36571    0.20657   1.00
H3       0.96876    0.36011    0.24818   1.00
H3       0.89205    0.41669    0.16663   1.00
H3       0.96505    0.41333    0.19220   1.00
C4       0.74962    0.02085    0.25006   1.00
C4       0.75038    -0.02085   0.24994   1.00
C3       0.74231    0.04249    0.28448   1.00
C3       0.76729    -0.04252   0.28073   1.00
C3       0.75703    0.04262    0.21575   1.00
C3       0.73335    -0.04259   0.21922   1.00
C2       0.75003    0.10518    0.25016   1.00
C2       0.75003    -0.10518   0.25016   1.00
C3a      0.74247    0.08401    0.28468   1.00
C3       0.76710    -0.08382   0.28076   1.00
C3       0.75722    0.08389    0.21586   1.00
C3a      0.73309    -0.08403   0.21914   1.00
H1       0.73614    0.02706    0.31134   1.00
H1       0.78112    -0.02750   0.30484   1.00
C5       0.73437    0.10590    0.32187   1.00
H1       0.78039    -0.09933   0.30486   1.00
H1       0.76331    0.09944    0.18905   1.00
C5       0.71452    -0.10535   0.18553   1.00
H1       0.71903    -0.02747   0.19549   1.00
H1       0.76353    0.02770    0.18868   1.00
H2       0.73100    -0.09837   0.15848   1.00
H2       0.71620    -0.13747   0.18972   1.00
N1       0.67360    -0.09395   0.18132   1.00
C6       0.66023    -0.05810   0.17243   1.00
C6       0.64245    -0.11757   0.18527   1.00
C6       0.62002    -0.05873   0.17085   1.00
C6       0.60871    -0.09656   0.17902   1.00
H3       0.67848    -0.03281   0.16733   1.00
H3       0.64405    -0.14831   0.19241   1.00
H3       0.60104    -0.03436   0.16440   1.00
H3       0.57919    -0.10758   0.18025   1.00
H2       0.73643    0.13772    0.31597   1.00
H2       0.70438    0.09999    0.33264   1.00
N1       0.76236    0.09477    0.35198   1.00
C6       0.78967    0.11922    0.37124   1.00
C6       0.76786    0.05715    0.36843   1.00
C6       0.81049    0.09723    0.39781   1.00
C6       0.79711    0.05909    0.39608   1.00
H3       0.79343    0.15008    0.36571   1.00
H3       0.75182    0.03124    0.36011   1.00
H3       0.83337    0.10795    0.41669   1.00
H3       0.80780    0.03495    0.41333   1.00
C4       0.75006    0.24962    0.02085   1.00
C4       0.74994    0.25038    -0.02085   1.00
C3       0.78448    0.24231    0.04249   1.00
C3       0.78073    0.26729    -0.04252   1.00
C3       0.71575    0.25703    0.04262   1.00
C3       0.71922    0.23335    -0.04259   1.00
C2       0.75016    0.25003    0.10518   1.00
C2       0.75016    0.25003    -0.10518   1.00
C3a      0.78468    0.24247    0.08401   1.00
C3       0.78076    0.26710    -0.08382   1.00
C3       0.71586    0.25722    0.08389   1.00
C3a      0.71914    0.23309    -0.08403   1.00
H1       0.81134    0.23614    0.02706   1.00
H1       0.80484    0.28112    -0.02750   1.00
C5       0.82187    0.23437    0.10590   1.00
H1       0.80486    0.28039    -0.09933   1.00
H1       0.68905    0.26331    0.09944   1.00
C5       0.68553    0.21452    -0.10535   1.00
H1       0.69549    0.21903    -0.02747   1.00
H1       0.68868    0.26353    0.02770   1.00
H2       0.65848    0.23100    -0.09837   1.00
H2       0.68972    0.21620    -0.13747   1.00
N1       0.68132    0.17360    -0.09395   1.00
C6       0.67243    0.16023    -0.05810   1.00
C6       0.68527    0.14245    -0.11757   1.00
C6       0.67085    0.12002    -0.05873   1.00
C6       0.67902    0.10871    -0.09656   1.00
H3       0.66733    0.17848    -0.03281   1.00
H3       0.69241    0.14405    -0.14831   1.00
H3       0.66440    0.10104    -0.03436   1.00
H3       0.68025    0.07919    -0.10758   1.00
H2       0.81597    0.23643    0.13772   1.00
H2       0.83264    0.20438    0.09999   1.00
N1       0.85198    0.26236    0.09477   1.00
C6       0.87124    0.28967    0.11922   1.00
C6       0.86843    0.26786    0.05715   1.00
C6       0.89781    0.31049    0.09723   1.00
C6       0.89608    0.29711    0.05909   1.00
H3       0.86571    0.29343    0.15008   1.00
H3       0.86011    0.25182    0.03124   1.00
H3       0.91669    0.33337    0.10795   1.00
H3       0.91333    0.30780    0.03495   1.00
C4       1.00006    1.00038    1.22915   1.00
C4       0.99994    0.99962    1.27085   1.00
C3       1.03448    1.00769    1.20751   1.00
C3       1.03073    0.98271    1.29252   1.00
C3       0.96575    0.99297    1.20738   1.00
C3       0.96922    1.01665    1.29259   1.00
C2       1.00016    0.99997    1.14482   1.00
C2       1.00016    0.99997    1.35518   1.00
C3a      1.03468    1.00753    1.16599   1.00
C3       1.03076    0.98290    1.33382   1.00
C3       0.96586    0.99278    1.16611   1.00
C3a      0.96914    1.01691    1.33403   1.00
H1       1.06134    1.01386    1.22294   1.00
H1       1.05484    0.96888    1.27750   1.00
C5       1.07187    1.01563    1.14410   1.00
H1       1.05486    0.96961    1.34933   1.00
H1       0.93905    0.98669    1.15056   1.00
C5       0.93553    1.03548    1.35535   1.00
H1       0.94549    1.03097    1.27747   1.00
H1       0.93868    0.98647    1.22230   1.00
H2       0.90848    1.01900    1.34837   1.00
H2       0.93972    1.03380    1.38747   1.00
N1       0.93132    1.07640    1.34395   1.00
C6       0.92243    1.08977    1.30810   1.00
C6       0.93527    1.10755    1.36757   1.00
C6       0.92085    1.12998    1.30873   1.00
C6       0.92902    1.14129    1.34656   1.00
H3       0.91733    1.07152    1.28281   1.00
H3       0.94241    1.10595    1.39831   1.00
H3       0.91440    1.14896    1.28436   1.00
H3       0.93025    1.17081    1.35758   1.00
H2       1.06597    1.01357    1.11228   1.00
H2       1.08264    1.04562    1.15001   1.00
N1       1.10198    0.98764    1.15523   1.00
C6       1.12124    0.96033    1.13078   1.00
C6       1.11843    0.98214    1.19285   1.00
C6       1.14781    0.93951    1.15277   1.00
C6       1.14608    0.95289    1.19091   1.00
H3       1.11571    0.95657    1.09992   1.00
H3       1.11011    0.99818    1.21876   1.00
H3       1.16669    0.91663    1.14205   1.00
H3       1.16333    0.94220    1.21505   1.00
C4       1.00038    1.22915    1.00006   1.00
C4       0.99962    1.27085    0.99994   1.00
C3       1.00769    1.20751    1.03448   1.00
C3       0.98271    1.29252    1.03073   1.00
C3       0.99297    1.20738    0.96575   1.00
C3       1.01665    1.29259    0.96922   1.00
C2       0.99997    1.14482    1.00016   1.00
C2       0.99997    1.35518    1.00016   1.00
C3a      1.00753    1.16599    1.03468   1.00
C3       0.98290    1.33382    1.03076   1.00
C3       0.99278    1.16611    0.96586   1.00
C3a      1.01691    1.33403    0.96914   1.00
H1       1.01386    1.22294    1.06134   1.00
H1       0.96888    1.27750    1.05484   1.00
C5       1.01563    1.14410    1.07187   1.00
H1       0.96961    1.34933    1.05486   1.00
H1       0.98669    1.15056    0.93905   1.00
C5       1.03548    1.35535    0.93553   1.00
H1       1.03097    1.27747    0.94549   1.00
H1       0.98647    1.22230    0.93868   1.00
H2       1.01900    1.34837    0.90848   1.00
H2       1.03380    1.38747    0.93972   1.00
N1       1.07640    1.34395    0.93132   1.00
C6       1.08977    1.30810    0.92243   1.00
C6       1.10755    1.36757    0.93527   1.00
C6       1.12998    1.30873    0.92085   1.00
C6       1.14129    1.34656    0.92902   1.00
H3       1.07152    1.28281    0.91733   1.00
H3       1.10595    1.39831    0.94241   1.00
H3       1.14896    1.28436    0.91440   1.00
H3       1.17081    1.35758    0.93025   1.00
H2       1.01357    1.11228    1.06597   1.00
H2       1.04562    1.15001    1.08264   1.00
N1       0.98764    1.15523    1.10198   1.00
C6       0.96033    1.13078    1.12124   1.00
C6       0.98214    1.19285    1.11843   1.00
C6       0.93951    1.15277    1.14781   1.00
C6       0.95289    1.19091    1.14608   1.00
H3       0.95657    1.09992    1.11571   1.00
H3       0.99818    1.21876    1.11011   1.00
H3       0.91663    1.14205    1.16669   1.00
H3       0.94220    1.21505    1.16333   1.00
C4       0.77085    1.00006    0.99962   1.00
C4       0.72915    0.99994    1.00038   1.00
C3       0.79249    1.03448    0.99231   1.00
C3       0.70748    1.03073    1.01729   1.00
C3       0.79262    0.96575    1.00703   1.00
C3       0.70741    0.96922    0.98335   1.00
C2       0.85518    1.00016    1.00003   1.00
C2       0.64482    1.00016    1.00003   1.00
C3a      0.83401    1.03468    0.99247   1.00
C3       0.66618    1.03076    1.01710   1.00
C3       0.83389    0.96586    1.00722   1.00
C3a      0.66597    0.96914    0.98309   1.00
H1       0.77706    1.06134    0.98614   1.00
H1       0.72250    1.05484    1.03112   1.00
C5       0.85590    1.07187    0.98437   1.00
H1       0.65067    1.05486    1.03039   1.00
H1       0.84944    0.93905    1.01331   1.00
C5       0.64465    0.93553    0.96452   1.00
H1       0.72253    0.94549    0.96903   1.00
H1       0.77770    0.93868    1.01353   1.00
H2       0.65163    0.90848    0.98100   1.00
H2       0.61253    0.93972    0.96620   1.00
N1       0.65605    0.93132    0.92360   1.00
C6       0.69190    0.92243    0.91023   1.00
C6       0.63243    0.93527    0.89245   1.00
C6       0.69127    0.92085    0.87002   1.00
C6       0.65344    0.92902    0.85871   1.00
H3       0.71719    0.91733    0.92848   1.00
H3       0.60169    0.94241    0.89405   1.00
H3       0.71564    0.91440    0.85104   1.00
H3       0.64242    0.93025    0.82919   1.00
H2       0.88772    1.06597    0.98643   1.00
H2       0.84999    1.08264    0.95438   1.00
N1       0.84477    1.10198    1.01236   1.00
C6       0.86922    1.12124    1.03967   1.00
C6       0.80715    1.11843    1.01786   1.00
C6       0.84723    1.14781    1.06049   1.00
C6       0.80909    1.14608    1.04711   1.00
H3       0.90008    1.11571    1.04343   1.00
H3       0.78124    1.11011    1.00182   1.00
H3       0.85795    1.16669    1.08337   1.00
H3       0.78495    1.16333    1.05780   1.00
C4       1.22915    1.00006    1.00038   1.00
C4       1.27085    0.99994    0.99962   1.00
C3       1.20751    1.03448    1.00769   1.00
C3       1.29252    1.03073    0.98271   1.00
C3       1.20738    0.96575    0.99297   1.00
C3       1.29259    0.96922    1.01665   1.00
C2       1.14482    1.00016    0.99997   1.00
C2       1.35518    1.00016    0.99997   1.00
C3a      1.16599    1.03468    1.00753   1.00
C3       1.33382    1.03076    0.98290   1.00
C3       1.16611    0.96586    0.99278   1.00
C3a      1.33403    0.96914    1.01691   1.00
H1       1.22294    1.06134    1.01386   1.00
H1       1.27750    1.05484    0.96888   1.00
C5       1.14410    1.07187    1.01563   1.00
H1       1.34933    1.05486    0.96961   1.00
H1       1.15056    0.93905    0.98669   1.00
C5       1.35535    0.93553    1.03548   1.00
H1       1.27747    0.94549    1.03097   1.00
H1       1.22230    0.93868    0.98647   1.00
H2       1.34837    0.90848    1.01900   1.00
H2       1.38747    0.93972    1.03380   1.00
N1       1.34395    0.93132    1.07640   1.00
C6       1.30810    0.92243    1.08977   1.00
C6       1.36757    0.93527    1.10755   1.00
C6       1.30873    0.92085    1.12998   1.00
C6       1.34656    0.92902    1.14129   1.00
H3       1.28281    0.91733    1.07152   1.00
H3       1.39831    0.94241    1.10595   1.00
H3       1.28436    0.91440    1.14896   1.00
H3       1.35758    0.93025    1.17081   1.00
H2       1.11228    1.06597    1.01357   1.00
H2       1.15001    1.08264    1.04562   1.00
N1       1.15523    1.10198    0.98764   1.00
C6       1.13078    1.12124    0.96033   1.00
C6       1.19285    1.11843    0.98214   1.00
C6       1.15277    1.14781    0.93951   1.00
C6       1.19091    1.14608    0.95289   1.00
H3       1.09992    1.11571    0.95657   1.00
H3       1.21876    1.11011    0.99818   1.00
H3       1.14205    1.16669    0.91663   1.00
H3       1.21505    1.16333    0.94220   1.00
C4       0.99962    0.77085    1.00006   1.00
C4       1.00038    0.72915    0.99994   1.00
C3       0.99231    0.79249    1.03448   1.00
C3       1.01729    0.70748    1.03073   1.00
C3       1.00703    0.79262    0.96575   1.00
C3       0.98335    0.70741    0.96922   1.00
C2       1.00003    0.85518    1.00016   1.00
C2       1.00003    0.64482    1.00016   1.00
C3a      0.99247    0.83401    1.03468   1.00
C3       1.01710    0.66618    1.03076   1.00
C3       1.00722    0.83389    0.96586   1.00
C3a      0.98309    0.66597    0.96914   1.00
H1       0.98614    0.77706    1.06134   1.00
H1       1.03112    0.72250    1.05484   1.00
C5       0.98437    0.85590    1.07187   1.00
H1       1.03039    0.65067    1.05486   1.00
H1       1.01331    0.84944    0.93905   1.00
C5       0.96452    0.64465    0.93553   1.00
H1       0.96903    0.72253    0.94549   1.00
H1       1.01353    0.77770    0.93868   1.00
H2       0.98100    0.65163    0.90848   1.00
H2       0.96620    0.61253    0.93972   1.00
N1       0.92360    0.65605    0.93132   1.00
C6       0.91023    0.69190    0.92243   1.00
C6       0.89245    0.63243    0.93527   1.00
C6       0.87002    0.69127    0.92085   1.00
C6       0.85871    0.65344    0.92902   1.00
H3       0.92848    0.71719    0.91733   1.00
H3       0.89405    0.60169    0.94241   1.00
H3       0.85104    0.71564    0.91440   1.00
H3       0.82919    0.64242    0.93025   1.00
H2       0.98643    0.88772    1.06597   1.00
H2       0.95438    0.84999    1.08264   1.00
N1       1.01236    0.84477    1.10198   1.00
C6       1.03967    0.86922    1.12124   1.00
C6       1.01786    0.80715    1.11843   1.00
C6       1.06049    0.84723    1.14781   1.00
C6       1.04711    0.80909    1.14608   1.00
H3       1.04343    0.90008    1.11571   1.00
H3       1.00182    0.78124    1.11011   1.00
H3       1.08337    0.85795    1.16669   1.00
H3       1.05780    0.78495    1.16333   1.00
C4       1.00006    0.99962    0.77085   1.00
C4       0.99994    1.00038    0.72915   1.00
C3       1.03448    0.99231    0.79249   1.00
C3       1.03073    1.01729    0.70748   1.00
C3       0.96575    1.00703    0.79262   1.00
C3       0.96922    0.98335    0.70741   1.00
C2       1.00016    1.00003    0.85518   1.00
C2       1.00016    1.00003    0.64482   1.00
C3a      1.03468    0.99247    0.83401   1.00
C3       1.03076    1.01710    0.66618   1.00
C3       0.96586    1.00722    0.83389   1.00
C3a      0.96914    0.98309    0.66597   1.00
H1       1.06134    0.98614    0.77706   1.00
H1       1.05484    1.03112    0.72250   1.00
C5       1.07187    0.98437    0.85590   1.00
H1       1.05486    1.03039    0.65067   1.00
H1       0.93905    1.01331    0.84944   1.00
C5       0.93553    0.96452    0.64465   1.00
H1       0.94549    0.96903    0.72253   1.00
H1       0.93868    1.01353    0.77770   1.00
H2       0.90848    0.98100    0.65163   1.00
H2       0.93972    0.96620    0.61253   1.00
N1       0.93132    0.92360    0.65605   1.00
C6       0.92243    0.91023    0.69190   1.00
C6       0.93527    0.89245    0.63243   1.00
C6       0.92085    0.87002    0.69127   1.00
C6       0.92902    0.85871    0.65344   1.00
H3       0.91733    0.92848    0.71719   1.00
H3       0.94241    0.89405    0.60169   1.00
H3       0.91440    0.85104    0.71564   1.00
H3       0.93025    0.82919    0.64242   1.00
H2       1.06597    0.98643    0.88772   1.00
H2       1.08264    0.95438    0.84999   1.00
N1       1.10198    1.01236    0.84477   1.00
C6       1.12124    1.03967    0.86922   1.00
C6       1.11843    1.01786    0.80715   1.00
C6       1.14781    1.06049    0.84723   1.00
C6       1.14608    1.04711    0.80909   1.00
H3       1.11571    1.04343    0.90008   1.00
H3       1.11011    1.00182    0.78124   1.00
H3       1.16669    1.08337    0.85795   1.00
H3       1.16333    1.05780    0.78495   1.00
C4       0.50006    0.50038    1.22915   1.00
C4       0.49994    0.49962    1.27085   1.00
C3       0.53448    0.50769    1.20751   1.00
C3       0.53073    0.48271    1.29252   1.00
C3       0.46575    0.49297    1.20738   1.00
C3       0.46922    0.51665    1.29259   1.00
C2       0.50016    0.49997    1.14482   1.00
C2       0.50016    0.49997    1.35518   1.00
C3a      0.53468    0.50753    1.16599   1.00
C3       0.53076    0.48290    1.33382   1.00
C3       0.46586    0.49278    1.16611   1.00
C3a      0.46914    0.51691    1.33403   1.00
H1       0.56134    0.51386    1.22294   1.00
H1       0.55484    0.46888    1.27750   1.00
C5       0.57187    0.51563    1.14410   1.00
H1       0.55486    0.46961    1.34933   1.00
H1       0.43905    0.48669    1.15056   1.00
C5       0.43553    0.53548    1.35535   1.00
H1       0.44549    0.53097    1.27747   1.00
H1       0.43868    0.48647    1.22230   1.00
H2       0.40848    0.51900    1.34837   1.00
H2       0.43972    0.53380    1.38747   1.00
N1       0.43132    0.57640    1.34395   1.00
C6       0.42243    0.58977    1.30810   1.00
C6       0.43527    0.60755    1.36757   1.00
C6       0.42085    0.62998    1.30873   1.00
C6       0.42902    0.64129    1.34656   1.00
H3       0.41733    0.57152    1.28281   1.00
H3       0.44241    0.60595    1.39831   1.00
H3       0.41440    0.64896    1.28436   1.00
H3       0.43025    0.67081    1.35758   1.00
H2       0.56597    0.51357    1.11228   1.00
H2       0.58264    0.54562    1.15001   1.00
N1       0.60198    0.48764    1.15523   1.00
C6       0.62124    0.46033    1.13078   1.00
C6       0.61843    0.48214    1.19285   1.00
C6       0.64781    0.43951    1.15277   1.00
C6       0.64608    0.45289    1.19091   1.00
H3       0.61571    0.45657    1.09992   1.00
H3       0.61011    0.49818    1.21876   1.00
H3       0.66669    0.41663    1.14205   1.00
H3       0.66333    0.44220    1.21505   1.00
C4       0.50038    0.72915    1.00006   1.00
C4       0.49962    0.77085    0.99994   1.00
C3       0.50769    0.70751    1.03448   1.00
C3       0.48271    0.79252    1.03073   1.00
C3       0.49297    0.70738    0.96575   1.00
C3       0.51665    0.79259    0.96922   1.00
C2       0.49997    0.64482    1.00016   1.00
C2       0.49997    0.85518    1.00016   1.00
C3a      0.50753    0.66599    1.03468   1.00
C3       0.48290    0.83382    1.03076   1.00
C3       0.49278    0.66611    0.96586   1.00
C3a      0.51691    0.83403    0.96914   1.00
H1       0.51386    0.72294    1.06134   1.00
H1       0.46888    0.77750    1.05484   1.00
C5       0.51563    0.64410    1.07187   1.00
H1       0.46961    0.84933    1.05486   1.00
H1       0.48669    0.65056    0.93905   1.00
C5       0.53548    0.85535    0.93553   1.00
H1       0.53097    0.77747    0.94549   1.00
H1       0.48647    0.72230    0.93868   1.00
H2       0.51900    0.84837    0.90848   1.00
H2       0.53380    0.88747    0.93972   1.00
N1       0.57640    0.84395    0.93132   1.00
C6       0.58977    0.80810    0.92243   1.00
C6       0.60755    0.86757    0.93527   1.00
C6       0.62998    0.80873    0.92085   1.00
C6       0.64129    0.84656    0.92902   1.00
H3       0.57152    0.78281    0.91733   1.00
H3       0.60595    0.89831    0.94241   1.00
H3       0.64896    0.78436    0.91440   1.00
H3       0.67081    0.85758    0.93025   1.00
H2       0.51357    0.61228    1.06597   1.00
H2       0.54562    0.65001    1.08264   1.00
N1       0.48764    0.65523    1.10198   1.00
C6       0.46033    0.63078    1.12124   1.00
C6       0.48214    0.69285    1.11843   1.00
C6       0.43951    0.65277    1.14781   1.00
C6       0.45289    0.69091    1.14608   1.00
H3       0.45657    0.59992    1.11571   1.00
H3       0.49818    0.71876    1.11011   1.00
H3       0.41663    0.64205    1.16669   1.00
H3       0.44220    0.71505    1.16333   1.00
C4       0.27085    0.50006    0.99962   1.00
C4       0.22915    0.49994    1.00038   1.00
C3       0.29249    0.53448    0.99231   1.00
C3       0.20748    0.53073    1.01729   1.00
C3       0.29262    0.46575    1.00703   1.00
C3       0.20741    0.46922    0.98335   1.00
C2       0.35518    0.50016    1.00003   1.00
C2       0.14482    0.50016    1.00003   1.00
C3a      0.33401    0.53468    0.99247   1.00
C3       0.16618    0.53076    1.01710   1.00
C3       0.33389    0.46586    1.00722   1.00
C3a      0.16597    0.46914    0.98309   1.00
H1       0.27706    0.56134    0.98614   1.00
H1       0.22250    0.55484    1.03112   1.00
C5       0.35590    0.57187    0.98437   1.00
H1       0.15067    0.55486    1.03039   1.00
H1       0.34944    0.43905    1.01331   1.00
C5       0.14465    0.43553    0.96452   1.00
H1       0.22253    0.44549    0.96903   1.00
H1       0.27770    0.43868    1.01353   1.00
H2       0.15163    0.40848    0.98100   1.00
H2       0.11253    0.43972    0.96620   1.00
N1       0.15605    0.43132    0.92360   1.00
C6       0.19190    0.42243    0.91023   1.00
C6       0.13243    0.43527    0.89245   1.00
C6       0.19127    0.42085    0.87002   1.00
C6       0.15344    0.42902    0.85871   1.00
H3       0.21719    0.41733    0.92848   1.00
H3       0.10169    0.44241    0.89405   1.00
H3       0.21564    0.41440    0.85104   1.00
H3       0.14242    0.43025    0.82919   1.00
H2       0.38772    0.56597    0.98643   1.00
H2       0.34999    0.58264    0.95438   1.00
N1       0.34477    0.60198    1.01236   1.00
C6       0.36922    0.62124    1.03967   1.00
C6       0.30715    0.61843    1.01786   1.00
C6       0.34723    0.64781    1.06049   1.00
C6       0.30909    0.64608    1.04711   1.00
H3       0.40008    0.61571    1.04343   1.00
H3       0.28124    0.61011    1.00182   1.00
H3       0.35795    0.66669    1.08337   1.00
H3       0.28495    0.66333    1.05780   1.00
C4       0.72915    0.50006    1.00038   1.00
C4       0.77085    0.49994    0.99962   1.00
C3       0.70751    0.53448    1.00769   1.00
C3       0.79252    0.53073    0.98271   1.00
C3       0.70738    0.46575    0.99297   1.00
C3       0.79259    0.46922    1.01665   1.00
C2       0.64482    0.50016    0.99997   1.00
C2       0.85518    0.50016    0.99997   1.00
C3a      0.66599    0.53468    1.00753   1.00
C3       0.83382    0.53076    0.98290   1.00
C3       0.66611    0.46586    0.99278   1.00
C3a      0.83403    0.46914    1.01691   1.00
H1       0.72294    0.56134    1.01386   1.00
H1       0.77750    0.55484    0.96888   1.00
C5       0.64410    0.57187    1.01563   1.00
H1       0.84933    0.55486    0.96961   1.00
H1       0.65056    0.43905    0.98669   1.00
C5       0.85535    0.43553    1.03548   1.00
H1       0.77747    0.44549    1.03097   1.00
H1       0.72230    0.43868    0.98647   1.00
H2       0.84837    0.40848    1.01900   1.00
H2       0.88747    0.43972    1.03380   1.00
N1       0.84395    0.43132    1.07640   1.00
C6       0.80810    0.42243    1.08977   1.00
C6       0.86757    0.43527    1.10755   1.00
C6       0.80873    0.42085    1.12998   1.00
C6       0.84656    0.42902    1.14129   1.00
H3       0.78281    0.41733    1.07152   1.00
H3       0.89831    0.44241    1.10595   1.00
H3       0.78436    0.41440    1.14896   1.00
H3       0.85758    0.43025    1.17081   1.00
H2       0.61228    0.56597    1.01357   1.00
H2       0.65001    0.58264    1.04562   1.00
N1       0.65523    0.60198    0.98764   1.00
C6       0.63078    0.62124    0.96033   1.00
C6       0.69285    0.61843    0.98214   1.00
C6       0.65277    0.64781    0.93951   1.00
C6       0.69091    0.64608    0.95289   1.00
H3       0.59992    0.61571    0.95657   1.00
H3       0.71876    0.61011    0.99818   1.00
H3       0.64205    0.66669    0.91663   1.00
H3       0.71505    0.66333    0.94220   1.00
C4       0.49962    0.27085    1.00006   1.00
C4       0.50038    0.22915    0.99994   1.00
C3       0.49231    0.29249    1.03448   1.00
C3       0.51729    0.20748    1.03073   1.00
C3       0.50703    0.29262    0.96575   1.00
C3       0.48335    0.20741    0.96922   1.00
C2       0.50003    0.35518    1.00016   1.00
C2       0.50003    0.14482    1.00016   1.00
C3a      0.49247    0.33401    1.03468   1.00
C3       0.51710    0.16618    1.03076   1.00
C3       0.50722    0.33389    0.96586   1.00
C3a      0.48309    0.16597    0.96914   1.00
H1       0.48614    0.27706    1.06134   1.00
H1       0.53112    0.22250    1.05484   1.00
C5       0.48437    0.35590    1.07187   1.00
H1       0.53039    0.15067    1.05486   1.00
H1       0.51331    0.34944    0.93905   1.00
C5       0.46452    0.14465    0.93553   1.00
H1       0.46903    0.22253    0.94549   1.00
H1       0.51353    0.27770    0.93868   1.00
H2       0.48100    0.15163    0.90848   1.00
H2       0.46620    0.11253    0.93972   1.00
N1       0.42360    0.15605    0.93132   1.00
C6       0.41023    0.19190    0.92243   1.00
C6       0.39245    0.13243    0.93527   1.00
C6       0.37002    0.19127    0.92085   1.00
C6       0.35871    0.15344    0.92902   1.00
H3       0.42848    0.21719    0.91733   1.00
H3       0.39405    0.10169    0.94241   1.00
H3       0.35104    0.21564    0.91440   1.00
H3       0.32919    0.14242    0.93025   1.00
H2       0.48643    0.38772    1.06597   1.00
H2       0.45438    0.34999    1.08264   1.00
N1       0.51236    0.34477    1.10198   1.00
C6       0.53967    0.36922    1.12124   1.00
C6       0.51786    0.30715    1.11843   1.00
C6       0.56049    0.34723    1.14781   1.00
C6       0.54711    0.30909    1.14608   1.00
H3       0.54343    0.40008    1.11571   1.00
H3       0.50182    0.28124    1.11011   1.00
H3       0.58337    0.35795    1.16669   1.00
H3       0.55780    0.28495    1.16333   1.00
C4       0.50006    0.49962    0.77085   1.00
C4       0.49994    0.50038    0.72915   1.00
C3       0.53448    0.49231    0.79249   1.00
C3       0.53073    0.51729    0.70748   1.00
C3       0.46575    0.50703    0.79262   1.00
C3       0.46922    0.48335    0.70741   1.00
C2       0.50016    0.50003    0.85518   1.00
C2       0.50016    0.50003    0.64482   1.00
C3a      0.53468    0.49247    0.83401   1.00
C3       0.53076    0.51710    0.66618   1.00
C3       0.46586    0.50722    0.83389   1.00
C3a      0.46914    0.48309    0.66597   1.00
H1       0.56134    0.48614    0.77706   1.00
H1       0.55484    0.53112    0.72250   1.00
C5       0.57187    0.48437    0.85590   1.00
H1       0.55486    0.53039    0.65067   1.00
H1       0.43905    0.51331    0.84944   1.00
C5       0.43553    0.46452    0.64465   1.00
H1       0.44549    0.46903    0.72253   1.00
H1       0.43868    0.51353    0.77770   1.00
H2       0.40848    0.48100    0.65163   1.00
H2       0.43972    0.46620    0.61253   1.00
N1       0.43132    0.42360    0.65605   1.00
C6       0.42243    0.41023    0.69190   1.00
C6       0.43527    0.39245    0.63243   1.00
C6       0.42085    0.37002    0.69127   1.00
C6       0.42902    0.35871    0.65344   1.00
H3       0.41733    0.42848    0.71719   1.00
H3       0.44241    0.39405    0.60169   1.00
H3       0.41440    0.35104    0.71564   1.00
H3       0.43025    0.32919    0.64242   1.00
H2       0.56597    0.48643    0.88772   1.00
H2       0.58264    0.45438    0.84999   1.00
N1       0.60198    0.51236    0.84477   1.00
C6       0.62124    0.53967    0.86922   1.00
C6       0.61843    0.51786    0.80715   1.00
C6       0.64781    0.56049    0.84723   1.00
C6       0.64608    0.54711    0.80909   1.00
H3       0.61571    0.54343    0.90008   1.00
H3       0.61011    0.50182    0.78124   1.00
H3       0.66669    0.58337    0.85795   1.00
H3       0.66333    0.55780    0.78495   1.00
C4       0.50006    1.00038    0.72915   1.00
C4       0.49994    0.99962    0.77085   1.00
C3       0.53448    1.00769    0.70751   1.00
C3       0.53073    0.98271    0.79252   1.00
C3       0.46575    0.99297    0.70738   1.00
C3       0.46922    1.01665    0.79259   1.00
C2       0.50016    0.99997    0.64482   1.00
C2       0.50016    0.99997    0.85518   1.00
C3a      0.53468    1.00753    0.66599   1.00
C3       0.53076    0.98290    0.83382   1.00
C3       0.46586    0.99278    0.66611   1.00
C3a      0.46914    1.01691    0.83403   1.00
H1       0.56134    1.01386    0.72294   1.00
H1       0.55484    0.96888    0.77750   1.00
C5       0.57187    1.01563    0.64410   1.00
H1       0.55486    0.96961    0.84933   1.00
H1       0.43905    0.98669    0.65056   1.00
C5       0.43553    1.03548    0.85535   1.00
H1       0.44549    1.03097    0.77747   1.00
H1       0.43868    0.98647    0.72230   1.00
H2       0.40848    1.01900    0.84837   1.00
H2       0.43972    1.03380    0.88747   1.00
N1       0.43132    1.07640    0.84395   1.00
C6       0.42243    1.08977    0.80810   1.00
C6       0.43527    1.10755    0.86757   1.00
C6       0.42085    1.12998    0.80873   1.00
C6       0.42902    1.14129    0.84656   1.00
H3       0.41733    1.07152    0.78281   1.00
H3       0.44241    1.10595    0.89831   1.00
H3       0.41440    1.14896    0.78436   1.00
H3       0.43025    1.17081    0.85758   1.00
H2       0.56597    1.01357    0.61228   1.00
H2       0.58264    1.04562    0.65001   1.00
N1       0.60198    0.98764    0.65523   1.00
C6       0.62124    0.96033    0.63078   1.00
C6       0.61843    0.98214    0.69285   1.00
C6       0.64781    0.93951    0.65277   1.00
C6       0.64608    0.95289    0.69091   1.00
H3       0.61571    0.95657    0.59992   1.00
H3       0.61011    0.99818    0.71876   1.00
H3       0.66669    0.91663    0.64205   1.00
H3       0.66333    0.94220    0.71505   1.00
C4       0.50038    1.22915    0.50006   1.00
C4       0.49962    1.27085    0.49994   1.00
C3       0.50769    1.20751    0.53448   1.00
C3       0.48271    1.29252    0.53073   1.00
C3       0.49297    1.20738    0.46575   1.00
C3       0.51665    1.29259    0.46922   1.00
C2       0.49997    1.14482    0.50016   1.00
C2       0.49997    1.35518    0.50016   1.00
C3a      0.50753    1.16599    0.53468   1.00
C3       0.48290    1.33382    0.53076   1.00
C3       0.49278    1.16611    0.46586   1.00
C3a      0.51691    1.33403    0.46914   1.00
H1       0.51386    1.22294    0.56134   1.00
H1       0.46888    1.27750    0.55484   1.00
C5       0.51563    1.14410    0.57187   1.00
H1       0.46961    1.34933    0.55486   1.00
H1       0.48669    1.15056    0.43905   1.00
C5       0.53548    1.35535    0.43553   1.00
H1       0.53097    1.27747    0.44549   1.00
H1       0.48647    1.22230    0.43868   1.00
H2       0.51900    1.34837    0.40848   1.00
H2       0.53380    1.38747    0.43972   1.00
N1       0.57640    1.34395    0.43132   1.00
C6       0.58977    1.30810    0.42243   1.00
C6       0.60755    1.36757    0.43527   1.00
C6       0.62998    1.30873    0.42085   1.00
C6       0.64129    1.34656    0.42902   1.00
H3       0.57152    1.28281    0.41733   1.00
H3       0.60595    1.39831    0.44241   1.00
H3       0.64896    1.28436    0.41440   1.00
H3       0.67081    1.35758    0.43025   1.00
H2       0.51357    1.11228    0.56597   1.00
H2       0.54562    1.15001    0.58264   1.00
N1       0.48764    1.15523    0.60198   1.00
C6       0.46033    1.13078    0.62124   1.00
C6       0.48214    1.19285    0.61843   1.00
C6       0.43951    1.15277    0.64781   1.00
C6       0.45289    1.19091    0.64608   1.00
H3       0.45657    1.09992    0.61571   1.00
H3       0.49818    1.21876    0.61011   1.00
H3       0.41663    1.14205    0.66669   1.00
H3       0.44220    1.21505    0.66333   1.00
C4       0.27085    1.00006    0.49962   1.00
C4       0.22915    0.99994    0.50038   1.00
C3       0.29249    1.03448    0.49231   1.00
C3       0.20748    1.03073    0.51729   1.00
C3       0.29262    0.96575    0.50703   1.00
C3       0.20741    0.96922    0.48335   1.00
C2       0.35518    1.00016    0.50003   1.00
C2       0.14482    1.00016    0.50003   1.00
C3a      0.33401    1.03468    0.49247   1.00
C3       0.16618    1.03076    0.51710   1.00
C3       0.33389    0.96586    0.50722   1.00
C3a      0.16597    0.96914    0.48309   1.00
H1       0.27706    1.06134    0.48614   1.00
H1       0.22250    1.05484    0.53112   1.00
C5       0.35590    1.07187    0.48437   1.00
H1       0.15067    1.05486    0.53039   1.00
H1       0.34944    0.93905    0.51331   1.00
C5       0.14465    0.93553    0.46452   1.00
H1       0.22253    0.94549    0.46903   1.00
H1       0.27770    0.93868    0.51353   1.00
H2       0.15163    0.90848    0.48100   1.00
H2       0.11253    0.93972    0.46620   1.00
N1       0.15605    0.93132    0.42360   1.00
C6       0.19190    0.92243    0.41023   1.00
C6       0.13243    0.93527    0.39245   1.00
C6       0.19127    0.92085    0.37002   1.00
C6       0.15344    0.92902    0.35871   1.00
H3       0.21719    0.91733    0.42848   1.00
H3       0.10169    0.94241    0.39405   1.00
H3       0.21564    0.91440    0.35104   1.00
H3       0.14242    0.93025    0.32919   1.00
H2       0.38772    1.06597    0.48643   1.00
H2       0.34999    1.08264    0.45438   1.00
N1       0.34477    1.10198    0.51236   1.00
C6       0.36922    1.12124    0.53967   1.00
C6       0.30715    1.11843    0.51786   1.00
C6       0.34723    1.14781    0.56049   1.00
C6       0.30909    1.14608    0.54711   1.00
H3       0.40008    1.11571    0.54343   1.00
H3       0.28124    1.11011    0.50182   1.00
H3       0.35795    1.16669    0.58337   1.00
H3       0.28495    1.16333    0.55780   1.00
C4       0.72915    1.00006    0.50038   1.00
C4       0.77085    0.99994    0.49962   1.00
C3       0.70751    1.03448    0.50769   1.00
C3       0.79252    1.03073    0.48271   1.00
C3       0.70738    0.96575    0.49297   1.00
C3       0.79259    0.96922    0.51665   1.00
C2       0.64482    1.00016    0.49997   1.00
C2       0.85518    1.00016    0.49997   1.00
C3a      0.66599    1.03468    0.50753   1.00
C3       0.83382    1.03076    0.48290   1.00
C3       0.66611    0.96586    0.49278   1.00
C3a      0.83403    0.96914    0.51691   1.00
H1       0.72294    1.06134    0.51386   1.00
H1       0.77750    1.05484    0.46888   1.00
C5       0.64410    1.07187    0.51563   1.00
H1       0.84933    1.05486    0.46961   1.00
H1       0.65056    0.93905    0.48669   1.00
C5       0.85535    0.93553    0.53548   1.00
H1       0.77747    0.94549    0.53097   1.00
H1       0.72230    0.93868    0.48647   1.00
H2       0.84837    0.90848    0.51900   1.00
H2       0.88747    0.93972    0.53380   1.00
N1       0.84395    0.93132    0.57640   1.00
C6       0.80810    0.92243    0.58977   1.00
C6       0.86757    0.93527    0.60755   1.00
C6       0.80873    0.92085    0.62998   1.00
C6       0.84656    0.92902    0.64129   1.00
H3       0.78281    0.91733    0.57152   1.00
H3       0.89831    0.94241    0.60595   1.00
H3       0.78436    0.91440    0.64896   1.00
H3       0.85758    0.93025    0.67081   1.00
H2       0.61228    1.06597    0.51357   1.00
H2       0.65001    1.08264    0.54562   1.00
N1       0.65523    1.10198    0.48764   1.00
C6       0.63078    1.12124    0.46033   1.00
C6       0.69285    1.11843    0.48214   1.00
C6       0.65277    1.14781    0.43951   1.00
C6       0.69091    1.14608    0.45289   1.00
H3       0.59992    1.11571    0.45657   1.00
H3       0.71876    1.11011    0.49818   1.00
H3       0.64205    1.16669    0.41663   1.00
H3       0.71505    1.16333    0.44220   1.00
C4       0.49962    0.77085    0.50006   1.00
C4       0.50038    0.72915    0.49994   1.00
C3       0.49231    0.79249    0.53448   1.00
C3       0.51729    0.70748    0.53073   1.00
C3       0.50703    0.79262    0.46575   1.00
C3       0.48335    0.70741    0.46922   1.00
C2       0.50003    0.85518    0.50016   1.00
C2       0.50003    0.64482    0.50016   1.00
C3a      0.49247    0.83401    0.53468   1.00
C3       0.51710    0.66618    0.53076   1.00
C3       0.50722    0.83389    0.46586   1.00
C3a      0.48309    0.66597    0.46914   1.00
H1       0.48614    0.77706    0.56134   1.00
H1       0.53112    0.72250    0.55484   1.00
C5       0.48437    0.85590    0.57187   1.00
H1       0.53039    0.65067    0.55486   1.00
H1       0.51331    0.84944    0.43905   1.00
C5       0.46452    0.64465    0.43553   1.00
H1       0.46903    0.72253    0.44549   1.00
H1       0.51353    0.77770    0.43868   1.00
H2       0.48100    0.65163    0.40848   1.00
H2       0.46620    0.61253    0.43972   1.00
N1       0.42360    0.65605    0.43132   1.00
C6       0.41023    0.69190    0.42243   1.00
C6       0.39245    0.63243    0.43527   1.00
C6       0.37002    0.69127    0.42085   1.00
C6       0.35871    0.65344    0.42902   1.00
H3       0.42848    0.71719    0.41733   1.00
H3       0.39405    0.60169    0.44241   1.00
H3       0.35104    0.71564    0.41440   1.00
H3       0.32919    0.64242    0.43025   1.00
H2       0.48643    0.88772    0.56597   1.00
H2       0.45438    0.84999    0.58264   1.00
N1       0.51236    0.84477    0.60198   1.00
C6       0.53967    0.86922    0.62124   1.00
C6       0.51786    0.80715    0.61843   1.00
C6       0.56049    0.84723    0.64781   1.00
C6       0.54711    0.80909    0.64608   1.00
H3       0.54343    0.90008    0.61571   1.00
H3       0.50182    0.78124    0.61011   1.00
H3       0.58337    0.85795    0.66669   1.00
H3       0.55780    0.78495    0.66333   1.00
C4       0.50006    0.99962    0.27085   1.00
C4       0.49994    1.00038    0.22915   1.00
C3       0.53448    0.99231    0.29249   1.00
C3       0.53073    1.01729    0.20748   1.00
C3       0.46575    1.00703    0.29262   1.00
C3       0.46922    0.98335    0.20741   1.00
C2       0.50016    1.00003    0.35518   1.00
C2       0.50016    1.00003    0.14482   1.00
C3a      0.53468    0.99247    0.33401   1.00
C3       0.53076    1.01710    0.16618   1.00
C3       0.46586    1.00722    0.33389   1.00
C3a      0.46914    0.98309    0.16597   1.00
H1       0.56134    0.98614    0.27706   1.00
H1       0.55484    1.03112    0.22250   1.00
C5       0.57187    0.98437    0.35590   1.00
H1       0.55486    1.03039    0.15067   1.00
H1       0.43905    1.01331    0.34944   1.00
C5       0.43553    0.96452    0.14465   1.00
H1       0.44549    0.96903    0.22253   1.00
H1       0.43868    1.01353    0.27770   1.00
H2       0.40848    0.98100    0.15163   1.00
H2       0.43972    0.96620    0.11253   1.00
N1       0.43132    0.92360    0.15605   1.00
C6       0.42243    0.91023    0.19190   1.00
C6       0.43527    0.89245    0.13243   1.00
C6       0.42085    0.87002    0.19127   1.00
C6       0.42902    0.85871    0.15344   1.00
H3       0.41733    0.92848    0.21719   1.00
H3       0.44241    0.89405    0.10169   1.00
H3       0.41440    0.85104    0.21564   1.00
H3       0.43025    0.82919    0.14242   1.00
H2       0.56597    0.98643    0.38772   1.00
H2       0.58264    0.95438    0.34999   1.00
N1       0.60198    1.01236    0.34477   1.00
C6       0.62124    1.03967    0.36922   1.00
C6       0.61843    1.01786    0.30715   1.00
C6       0.64781    1.06049    0.34723   1.00
C6       0.64608    1.04711    0.30909   1.00
H3       0.61571    1.04343    0.40008   1.00
H3       0.61011    1.00182    0.28124   1.00
H3       0.66669    1.08337    0.35795   1.00
H3       0.66333    1.05780    0.28495   1.00
C4       1.00006    0.50038    0.72915   1.00
C4       0.99994    0.49962    0.77085   1.00
C3       1.03448    0.50769    0.70751   1.00
C3       1.03073    0.48271    0.79252   1.00
C3       0.96575    0.49297    0.70738   1.00
C3       0.96922    0.51665    0.79259   1.00
C2       1.00016    0.49997    0.64482   1.00
C2       1.00016    0.49997    0.85518   1.00
C3a      1.03468    0.50753    0.66599   1.00
C3       1.03076    0.48290    0.83382   1.00
C3       0.96586    0.49278    0.66611   1.00
C3a      0.96914    0.51691    0.83403   1.00
H1       1.06134    0.51386    0.72294   1.00
H1       1.05484    0.46888    0.77750   1.00
C5       1.07187    0.51563    0.64410   1.00
H1       1.05486    0.46961    0.84933   1.00
H1       0.93905    0.48669    0.65056   1.00
C5       0.93553    0.53548    0.85535   1.00
H1       0.94549    0.53097    0.77747   1.00
H1       0.93868    0.48647    0.72230   1.00
H2       0.90848    0.51900    0.84837   1.00
H2       0.93972    0.53380    0.88747   1.00
N1       0.93132    0.57640    0.84395   1.00
C6       0.92243    0.58977    0.80810   1.00
C6       0.93527    0.60755    0.86757   1.00
C6       0.92085    0.62998    0.80873   1.00
C6       0.92902    0.64129    0.84656   1.00
H3       0.91733    0.57152    0.78281   1.00
H3       0.94241    0.60595    0.89831   1.00
H3       0.91440    0.64896    0.78436   1.00
H3       0.93025    0.67081    0.85758   1.00
H2       1.06597    0.51357    0.61228   1.00
H2       1.08264    0.54562    0.65001   1.00
N1       1.10198    0.48764    0.65523   1.00
C6       1.12124    0.46033    0.63078   1.00
C6       1.11843    0.48214    0.69285   1.00
C6       1.14781    0.43951    0.65277   1.00
C6       1.14608    0.45289    0.69091   1.00
H3       1.11571    0.45657    0.59992   1.00
H3       1.11011    0.49818    0.71876   1.00
H3       1.16669    0.41663    0.64205   1.00
H3       1.16333    0.44220    0.71505   1.00
C4       1.00038    0.72915    0.50006   1.00
C4       0.99962    0.77085    0.49994   1.00
C3       1.00769    0.70751    0.53448   1.00
C3       0.98271    0.79252    0.53073   1.00
C3       0.99297    0.70738    0.46575   1.00
C3       1.01665    0.79259    0.46922   1.00
C2       0.99997    0.64482    0.50016   1.00
C2       0.99997    0.85518    0.50016   1.00
C3a      1.00753    0.66599    0.53468   1.00
C3       0.98290    0.83382    0.53076   1.00
C3       0.99278    0.66611    0.46586   1.00
C3a      1.01691    0.83403    0.46914   1.00
H1       1.01386    0.72294    0.56134   1.00
H1       0.96888    0.77750    0.55484   1.00
C5       1.01563    0.64410    0.57187   1.00
H1       0.96961    0.84933    0.55486   1.00
H1       0.98669    0.65056    0.43905   1.00
C5       1.03548    0.85535    0.43553   1.00
H1       1.03097    0.77747    0.44549   1.00
H1       0.98647    0.72230    0.43868   1.00
H2       1.01900    0.84837    0.40848   1.00
H2       1.03380    0.88747    0.43972   1.00
N1       1.07640    0.84395    0.43132   1.00
C6       1.08977    0.80810    0.42243   1.00
C6       1.10755    0.86757    0.43527   1.00
C6       1.12998    0.80873    0.42085   1.00
C6       1.14129    0.84656    0.42902   1.00
H3       1.07152    0.78281    0.41733   1.00
H3       1.10595    0.89831    0.44241   1.00
H3       1.14896    0.78436    0.41440   1.00
H3       1.17081    0.85758    0.43025   1.00
H2       1.01357    0.61228    0.56597   1.00
H2       1.04562    0.65001    0.58264   1.00
N1       0.98764    0.65523    0.60198   1.00
C6       0.96033    0.63078    0.62124   1.00
C6       0.98214    0.69285    0.61843   1.00
C6       0.93951    0.65277    0.64781   1.00
C6       0.95289    0.69091    0.64608   1.00
H3       0.95657    0.59992    0.61571   1.00
H3       0.99818    0.71876    0.61011   1.00
H3       0.91663    0.64205    0.66669   1.00
H3       0.94220    0.71505    0.66333   1.00
C4       0.77085    0.50006    0.49962   1.00
C4       0.72915    0.49994    0.50038   1.00
C3       0.79249    0.53448    0.49231   1.00
C3       0.70748    0.53073    0.51729   1.00
C3       0.79262    0.46575    0.50703   1.00
C3       0.70741    0.46922    0.48335   1.00
C2       0.85518    0.50016    0.50003   1.00
C2       0.64482    0.50016    0.50003   1.00
C3a      0.83401    0.53468    0.49247   1.00
C3       0.66618    0.53076    0.51710   1.00
C3       0.83389    0.46586    0.50722   1.00
C3a      0.66597    0.46914    0.48309   1.00
H1       0.77706    0.56134    0.48614   1.00
H1       0.72250    0.55484    0.53112   1.00
C5       0.85590    0.57187    0.48437   1.00
H1       0.65067    0.55486    0.53039   1.00
H1       0.84944    0.43905    0.51331   1.00
C5       0.64465    0.43553    0.46452   1.00
H1       0.72253    0.44549    0.46903   1.00
H1       0.77770    0.43868    0.51353   1.00
H2       0.65163    0.40848    0.48100   1.00
H2       0.61253    0.43972    0.46620   1.00
N1       0.65605    0.43132    0.42360   1.00
C6       0.69190    0.42243    0.41023   1.00
C6       0.63243    0.43527    0.39245   1.00
C6       0.69127    0.42085    0.37002   1.00
C6       0.65344    0.42902    0.35871   1.00
H3       0.71719    0.41733    0.42848   1.00
H3       0.60169    0.44241    0.39405   1.00
H3       0.71564    0.41440    0.35104   1.00
H3       0.64242    0.43025    0.32919   1.00
H2       0.88772    0.56597    0.48643   1.00
H2       0.84999    0.58264    0.45438   1.00
N1       0.84477    0.60198    0.51236   1.00
C6       0.86922    0.62124    0.53967   1.00
C6       0.80715    0.61843    0.51786   1.00
C6       0.84723    0.64781    0.56049   1.00
C6       0.80909    0.64608    0.54711   1.00
H3       0.90008    0.61571    0.54343   1.00
H3       0.78124    0.61011    0.50182   1.00
H3       0.85795    0.66669    0.58337   1.00
H3       0.78495    0.66333    0.55780   1.00
C4       1.22915    0.50006    0.50038   1.00
C4       1.27085    0.49994    0.49962   1.00
C3       1.20751    0.53448    0.50769   1.00
C3       1.29252    0.53073    0.48271   1.00
C3       1.20738    0.46575    0.49297   1.00
C3       1.29259    0.46922    0.51665   1.00
C2       1.14482    0.50016    0.49997   1.00
C2       1.35518    0.50016    0.49997   1.00
C3a      1.16599    0.53468    0.50753   1.00
C3       1.33382    0.53076    0.48290   1.00
C3       1.16611    0.46586    0.49278   1.00
C3a      1.33403    0.46914    0.51691   1.00
H1       1.22294    0.56134    0.51386   1.00
H1       1.27750    0.55484    0.46888   1.00
C5       1.14410    0.57187    0.51563   1.00
H1       1.34933    0.55486    0.46961   1.00
H1       1.15056    0.43905    0.48669   1.00
C5       1.35535    0.43553    0.53548   1.00
H1       1.27747    0.44549    0.53097   1.00
H1       1.22230    0.43868    0.48647   1.00
H2       1.34837    0.40848    0.51900   1.00
H2       1.38747    0.43972    0.53380   1.00
N1       1.34395    0.43132    0.57640   1.00
C6       1.30810    0.42243    0.58977   1.00
C6       1.36757    0.43527    0.60755   1.00
C6       1.30873    0.42085    0.62998   1.00
C6       1.34656    0.42902    0.64129   1.00
H3       1.28281    0.41733    0.57152   1.00
H3       1.39831    0.44241    0.60595   1.00
H3       1.28436    0.41440    0.64896   1.00
H3       1.35758    0.43025    0.67081   1.00
H2       1.11228    0.56597    0.51357   1.00
H2       1.15001    0.58264    0.54562   1.00
N1       1.15523    0.60198    0.48764   1.00
C6       1.13078    0.62124    0.46033   1.00
C6       1.19285    0.61843    0.48214   1.00
C6       1.15277    0.64781    0.43951   1.00
C6       1.19091    0.64608    0.45289   1.00
H3       1.09992    0.61571    0.45657   1.00
H3       1.21876    0.61011    0.49818   1.00
H3       1.14205    0.66669    0.41663   1.00
H3       1.21505    0.66333    0.44220   1.00
C4       0.99962    0.27085    0.50006   1.00
C4       1.00038    0.22915    0.49994   1.00
C3       0.99231    0.29249    0.53448   1.00
C3       1.01729    0.20748    0.53073   1.00
C3       1.00703    0.29262    0.46575   1.00
C3       0.98335    0.20741    0.46922   1.00
C2       1.00003    0.35518    0.50016   1.00
C2       1.00003    0.14482    0.50016   1.00
C3a      0.99247    0.33401    0.53468   1.00
C3       1.01710    0.16618    0.53076   1.00
C3       1.00722    0.33389    0.46586   1.00
C3a      0.98309    0.16597    0.46914   1.00
H1       0.98614    0.27706    0.56134   1.00
H1       1.03112    0.22250    0.55484   1.00
C5       0.98437    0.35590    0.57187   1.00
H1       1.03039    0.15067    0.55486   1.00
H1       1.01331    0.34944    0.43905   1.00
C5       0.96452    0.14465    0.43553   1.00
H1       0.96903    0.22253    0.44549   1.00
H1       1.01353    0.27770    0.43868   1.00
H2       0.98100    0.15163    0.40848   1.00
H2       0.96620    0.11253    0.43972   1.00
N1       0.92360    0.15605    0.43132   1.00
C6       0.91023    0.19190    0.42243   1.00
C6       0.89245    0.13243    0.43527   1.00
C6       0.87002    0.19127    0.42085   1.00
C6       0.85871    0.15344    0.42902   1.00
H3       0.92848    0.21719    0.41733   1.00
H3       0.89405    0.10169    0.44241   1.00
H3       0.85104    0.21564    0.41440   1.00
H3       0.82919    0.14242    0.43025   1.00
H2       0.98643    0.38772    0.56597   1.00
H2       0.95438    0.34999    0.58264   1.00
N1       1.01236    0.34477    0.60198   1.00
C6       1.03967    0.36922    0.62124   1.00
C6       1.01786    0.30715    0.61843   1.00
C6       1.06049    0.34723    0.64781   1.00
C6       1.04711    0.30909    0.64608   1.00
H3       1.04343    0.40008    0.61571   1.00
H3       1.00182    0.28124    0.61011   1.00
H3       1.08337    0.35795    0.66669   1.00
H3       1.05780    0.28495    0.66333   1.00
C4       1.00006    0.49962    0.27085   1.00
C4       0.99994    0.50038    0.22915   1.00
C3       1.03448    0.49231    0.29249   1.00
C3       1.03073    0.51729    0.20748   1.00
C3       0.96575    0.50703    0.29262   1.00
C3       0.96922    0.48335    0.20741   1.00
C2       1.00016    0.50003    0.35518   1.00
C2       1.00016    0.50003    0.14482   1.00
C3a      1.03468    0.49247    0.33401   1.00
C3       1.03076    0.51710    0.16618   1.00
C3       0.96586    0.50722    0.33389   1.00
C3a      0.96914    0.48309    0.16597   1.00
H1       1.06134    0.48614    0.27706   1.00
H1       1.05484    0.53112    0.22250   1.00
C5       1.07187    0.48437    0.35590   1.00
H1       1.05486    0.53039    0.15067   1.00
H1       0.93905    0.51331    0.34944   1.00
C5       0.93553    0.46452    0.14465   1.00
H1       0.94549    0.46903    0.22253   1.00
H1       0.93868    0.51353    0.27770   1.00
H2       0.90848    0.48100    0.15163   1.00
H2       0.93972    0.46620    0.11253   1.00
N1       0.93132    0.42360    0.15605   1.00
C6       0.92243    0.41023    0.19190   1.00
C6       0.93527    0.39245    0.13243   1.00
C6       0.92085    0.37002    0.19127   1.00
C6       0.92902    0.35871    0.15344   1.00
H3       0.91733    0.42848    0.21719   1.00
H3       0.94241    0.39405    0.10169   1.00
H3       0.91440    0.35104    0.21564   1.00
H3       0.93025    0.32919    0.14242   1.00
H2       1.06597    0.48643    0.38772   1.00
H2       1.08264    0.45438    0.34999   1.00
N1       1.10198    0.51236    0.34477   1.00
C6       1.12124    0.53967    0.36922   1.00
C6       1.11843    0.51786    0.30715   1.00
C6       1.14781    0.56049    0.34723   1.00
C6       1.14608    0.54711    0.30909   1.00
H3       1.11571    0.54343    0.40008   1.00
H3       1.11011    0.50182    0.28124   1.00
H3       1.16669    0.58337    0.35795   1.00
H3       1.16333    0.55780    0.28495   1.00
