data_IRMOF10_SG202_interpen_Ligand9lp_label_q.

_audit_creation_method             'generated by an auxiliary program of Tobunporous'

_symmetry_space_group_name_H-M     'P 1'
_symmetry_Int_Tables_number        1
_symmetry_cell_setting             triclinic

_cell_length_a                    34.2800
_cell_length_b                    34.2800
_cell_length_c                    34.2800
_cell_angle_alpha                 90.0000
_cell_angle_beta                  90.0000
_cell_angle_gamma                 90.0000

loop_
_atom_site_label
_atom_site_fract_x
_atom_site_fract_y
_atom_site_fract_z
_atom_site_occupancy
O1       0.75000    0.75000    0.75000   1.00
Zn1      0.71720    0.78280    0.78280   1.00
Zn1      0.78280    0.71720    0.78280   1.00
Zn1      0.78280    0.78280    0.71720   1.00
Zn1      0.71720    0.71720    0.71720   1.00
O2       0.72650    0.77350    0.83820   1.00
O2       0.72650    0.83820    0.77350   1.00
O2       0.66180    0.77350    0.77350   1.00
O2       0.77350    0.72650    0.83820   1.00
O2       0.83820    0.72650    0.77350   1.00
O2       0.77350    0.66180    0.77350   1.00
O2       0.77350    0.83820    0.72650   1.00
O2       0.83820    0.77350    0.72650   1.00
O2       0.77350    0.77350    0.66180   1.00
O2       0.66180    0.72650    0.72650   1.00
O2       0.72650    0.66180    0.72650   1.00
O2       0.72650    0.72650    0.66180   1.00
C1       0.75000    0.75000    0.85520   1.00
C1       0.75000    0.85520    0.75000   1.00
C1       0.64480    0.75000    0.75000   1.00
C1       0.85520    0.75000    0.75000   1.00
C1       0.75000    0.64480    0.75000   1.00
C1       0.75000    0.75000    0.64480   1.00
O1       0.25000    0.25000    0.75000   1.00
Zn1      0.21720    0.28280    0.78280   1.00
Zn1      0.28280    0.21720    0.78280   1.00
Zn1      0.28280    0.28280    0.71720   1.00
Zn1      0.21720    0.21720    0.71720   1.00
O2       0.22650    0.27350    0.83820   1.00
O2       0.22650    0.33820    0.77350   1.00
O2       0.16180    0.27350    0.77350   1.00
O2       0.27350    0.22650    0.83820   1.00
O2       0.33820    0.22650    0.77350   1.00
O2       0.27350    0.16180    0.77350   1.00
O2       0.27350    0.33820    0.72650   1.00
O2       0.33820    0.27350    0.72650   1.00
O2       0.27350    0.27350    0.66180   1.00
O2       0.16180    0.22650    0.72650   1.00
O2       0.22650    0.16180    0.72650   1.00
O2       0.22650    0.22650    0.66180   1.00
C1       0.25000    0.25000    0.85520   1.00
C1       0.25000    0.35520    0.75000   1.00
C1       0.14480    0.25000    0.75000   1.00
C1       0.35520    0.25000    0.75000   1.00
C1       0.25000    0.14480    0.75000   1.00
C1       0.25000    0.25000    0.64480   1.00
O1       0.25000    0.75000    0.25000   1.00
Zn1      0.21720    0.78280    0.28280   1.00
Zn1      0.28280    0.71720    0.28280   1.00
Zn1      0.28280    0.78280    0.21720   1.00
Zn1      0.21720    0.71720    0.21720   1.00
O2       0.22650    0.77350    0.33820   1.00
O2       0.22650    0.83820    0.27350   1.00
O2       0.16180    0.77350    0.27350   1.00
O2       0.27350    0.72650    0.33820   1.00
O2       0.33820    0.72650    0.27350   1.00
O2       0.27350    0.66180    0.27350   1.00
O2       0.27350    0.83820    0.22650   1.00
O2       0.33820    0.77350    0.22650   1.00
O2       0.27350    0.77350    0.16180   1.00
O2       0.16180    0.72650    0.22650   1.00
O2       0.22650    0.66180    0.22650   1.00
O2       0.22650    0.72650    0.16180   1.00
C1       0.25000    0.75000    0.35520   1.00
C1       0.25000    0.85520    0.25000   1.00
C1       0.14480    0.75000    0.25000   1.00
C1       0.35520    0.75000    0.25000   1.00
C1       0.25000    0.64480    0.25000   1.00
C1       0.25000    0.75000    0.14480   1.00
O1       0.75000    0.25000    0.25000   1.00
Zn1      0.71720    0.28280    0.28280   1.00
Zn1      0.78280    0.21720    0.28280   1.00
Zn1      0.78280    0.28280    0.21720   1.00
Zn1      0.71720    0.21720    0.21720   1.00
O2       0.72650    0.27350    0.33820   1.00
O2       0.72650    0.33820    0.27350   1.00
O2       0.66180    0.27350    0.27350   1.00
O2       0.77350    0.22650    0.33820   1.00
O2       0.83820    0.22650    0.27350   1.00
O2       0.77350    0.16180    0.27350   1.00
O2       0.77350    0.33820    0.22650   1.00
O2       0.83820    0.27350    0.22650   1.00
O2       0.77350    0.27350    0.16180   1.00
O2       0.66180    0.22650    0.22650   1.00
O2       0.72650    0.16180    0.22650   1.00
O2       0.72650    0.22650    0.16180   1.00
C1       0.75000    0.25000    0.35520   1.00
C1       0.75000    0.35520    0.25000   1.00
C1       0.64480    0.25000    0.25000   1.00
C1       0.85520    0.25000    0.25000   1.00
C1       0.75000    0.14480    0.25000   1.00
C1       0.75000    0.25000    0.14480   1.00
O1       0.25000    0.25000    0.25000   1.00
Zn1      0.28280    0.21720    0.21720   1.00
Zn1      0.21720    0.28280    0.21720   1.00
Zn1      0.21720    0.21720    0.28280   1.00
Zn1      0.28280    0.28280    0.28280   1.00
O2       0.27350    0.22650    0.16180   1.00
O2       0.27350    0.16180    0.22650   1.00
O2       0.33820    0.22650    0.22650   1.00
O2       0.22650    0.27350    0.16180   1.00
O2       0.16180    0.27350    0.22650   1.00
O2       0.22650    0.33820    0.22650   1.00
O2       0.22650    0.16180    0.27350   1.00
O2       0.16180    0.22650    0.27350   1.00
O2       0.22650    0.22650    0.33820   1.00
O2       0.33820    0.27350    0.27350   1.00
O2       0.27350    0.33820    0.27350   1.00
O2       0.27350    0.27350    0.33820   1.00
C1       0.25000    0.25000    0.14480   1.00
C1       0.25000    0.14480    0.25000   1.00
C1       0.35520    0.25000    0.25000   1.00
C1       0.14480    0.25000    0.25000   1.00
C1       0.25000    0.35520    0.25000   1.00
C1       0.25000    0.25000    0.35520   1.00
O1       0.75000    0.75000    0.25000   1.00
Zn1      0.78280    0.71720    0.21720   1.00
Zn1      0.71720    0.78280    0.21720   1.00
Zn1      0.71720    0.71720    0.28280   1.00
Zn1      0.78280    0.78280    0.28280   1.00
O2       0.77350    0.72650    0.16180   1.00
O2       0.77350    0.66180    0.22650   1.00
O2       0.83820    0.72650    0.22650   1.00
O2       0.72650    0.77350    0.16180   1.00
O2       0.66180    0.77350    0.22650   1.00
O2       0.72650    0.83820    0.22650   1.00
O2       0.72650    0.66180    0.27350   1.00
O2       0.66180    0.72650    0.27350   1.00
O2       0.72650    0.72650    0.33820   1.00
O2       0.83820    0.77350    0.27350   1.00
O2       0.77350    0.83820    0.27350   1.00
O2       0.77350    0.77350    0.33820   1.00
C1       0.75000    0.75000    0.14480   1.00
C1       0.75000    0.64480    0.25000   1.00
C1       0.85520    0.75000    0.25000   1.00
C1       0.64480    0.75000    0.25000   1.00
C1       0.75000    0.85520    0.25000   1.00
C1       0.75000    0.75000    0.35520   1.00
O1       0.75000    0.25000    0.75000   1.00
Zn1      0.78280    0.21720    0.71720   1.00
Zn1      0.71720    0.28280    0.71720   1.00
Zn1      0.71720    0.21720    0.78280   1.00
Zn1      0.78280    0.28280    0.78280   1.00
O2       0.77350    0.22650    0.66180   1.00
O2       0.77350    0.16180    0.72650   1.00
O2       0.83820    0.22650    0.72650   1.00
O2       0.72650    0.27350    0.66180   1.00
O2       0.66180    0.27350    0.72650   1.00
O2       0.72650    0.33820    0.72650   1.00
O2       0.72650    0.16180    0.77350   1.00
O2       0.66180    0.22650    0.77350   1.00
O2       0.72650    0.22650    0.83820   1.00
O2       0.83820    0.27350    0.77350   1.00
O2       0.77350    0.33820    0.77350   1.00
O2       0.77350    0.27350    0.83820   1.00
C1       0.75000    0.25000    0.64480   1.00
C1       0.75000    0.14480    0.75000   1.00
C1       0.85520    0.25000    0.75000   1.00
C1       0.64480    0.25000    0.75000   1.00
C1       0.75000    0.35520    0.75000   1.00
C1       0.75000    0.25000    0.85520   1.00
O1       0.25000    0.75000    0.75000   1.00
Zn1      0.28280    0.71720    0.71720   1.00
Zn1      0.21720    0.78280    0.71720   1.00
Zn1      0.21720    0.71720    0.78280   1.00
Zn1      0.28280    0.78280    0.78280   1.00
O2       0.27350    0.72650    0.66180   1.00
O2       0.27350    0.66180    0.72650   1.00
O2       0.33820    0.72650    0.72650   1.00
O2       0.22650    0.77350    0.66180   1.00
O2       0.16180    0.77350    0.72650   1.00
O2       0.22650    0.83820    0.72650   1.00
O2       0.22650    0.66180    0.77350   1.00
O2       0.16180    0.72650    0.77350   1.00
O2       0.22650    0.72650    0.83820   1.00
O2       0.33820    0.77350    0.77350   1.00
O2       0.27350    0.83820    0.77350   1.00
O2       0.27350    0.77350    0.83820   1.00
C1       0.25000    0.75000    0.64480   1.00
C1       0.25000    0.64480    0.75000   1.00
C1       0.35520    0.75000    0.75000   1.00
C1       0.14480    0.75000    0.75000   1.00
C1       0.25000    0.85520    0.75000   1.00
C1       0.25000    0.75000    0.85520   1.00
O1       1.00000    1.00000    1.00000   1.00
Zn1      0.96720    1.03280    1.03280   1.00
Zn1      1.03280    0.96720    1.03280   1.00
Zn1      1.03280    1.03280    0.96720   1.00
Zn1      0.96720    0.96720    0.96720   1.00
O2       0.97650    1.02350    1.08820   1.00
O2       0.97650    1.08820    1.02350   1.00
O2       0.91180    1.02350    1.02350   1.00
O2       1.02350    0.97650    1.08820   1.00
O2       1.08820    0.97650    1.02350   1.00
O2       1.02350    0.91180    1.02350   1.00
O2       1.02350    1.08820    0.97650   1.00
O2       1.08820    1.02350    0.97650   1.00
O2       1.02350    1.02350    0.91180   1.00
O2       0.91180    0.97650    0.97650   1.00
O2       0.97650    0.91180    0.97650   1.00
O2       0.97650    0.97650    0.91180   1.00
C1       1.00000    1.00000    1.10520   1.00
C1       1.00000    1.10520    1.00000   1.00
C1       0.89480    1.00000    1.00000   1.00
C1       1.10520    1.00000    1.00000   1.00
C1       1.00000    0.89480    1.00000   1.00
C1       1.00000    1.00000    0.89480   1.00
O1       0.50000    0.50000    1.00000   1.00
Zn1      0.46720    0.53280    1.03280   1.00
Zn1      0.53280    0.46720    1.03280   1.00
Zn1      0.53280    0.53280    0.96720   1.00
Zn1      0.46720    0.46720    0.96720   1.00
O2       0.47650    0.52350    1.08820   1.00
O2       0.47650    0.58820    1.02350   1.00
O2       0.41180    0.52350    1.02350   1.00
O2       0.52350    0.47650    1.08820   1.00
O2       0.58820    0.47650    1.02350   1.00
O2       0.52350    0.41180    1.02350   1.00
O2       0.52350    0.58820    0.97650   1.00
O2       0.58820    0.52350    0.97650   1.00
O2       0.52350    0.52350    0.91180   1.00
O2       0.41180    0.47650    0.97650   1.00
O2       0.47650    0.41180    0.97650   1.00
O2       0.47650    0.47650    0.91180   1.00
C1       0.50000    0.50000    1.10520   1.00
C1       0.50000    0.60520    1.00000   1.00
C1       0.39480    0.50000    1.00000   1.00
C1       0.60520    0.50000    1.00000   1.00
C1       0.50000    0.39480    1.00000   1.00
C1       0.50000    0.50000    0.89480   1.00
O1       0.50000    1.00000    0.50000   1.00
Zn1      0.46720    1.03280    0.53280   1.00
Zn1      0.53280    0.96720    0.53280   1.00
Zn1      0.53280    1.03280    0.46720   1.00
Zn1      0.46720    0.96720    0.46720   1.00
O2       0.47650    1.02350    0.58820   1.00
O2       0.47650    1.08820    0.52350   1.00
O2       0.41180    1.02350    0.52350   1.00
O2       0.52350    0.97650    0.58820   1.00
O2       0.58820    0.97650    0.52350   1.00
O2       0.52350    0.91180    0.52350   1.00
O2       0.52350    1.08820    0.47650   1.00
O2       0.58820    1.02350    0.47650   1.00
O2       0.52350    1.02350    0.41180   1.00
O2       0.41180    0.97650    0.47650   1.00
O2       0.47650    0.91180    0.47650   1.00
O2       0.47650    0.97650    0.41180   1.00
C1       0.50000    1.00000    0.60520   1.00
C1       0.50000    1.10520    0.50000   1.00
C1       0.39480    1.00000    0.50000   1.00
C1       0.60520    1.00000    0.50000   1.00
C1       0.50000    0.89480    0.50000   1.00
C1       0.50000    1.00000    0.39480   1.00
O1       1.00000    0.50000    0.50000   1.00
Zn1      0.96720    0.53280    0.53280   1.00
Zn1      1.03280    0.46720    0.53280   1.00
Zn1      1.03280    0.53280    0.46720   1.00
Zn1      0.96720    0.46720    0.46720   1.00
O2       0.97650    0.52350    0.58820   1.00
O2       0.97650    0.58820    0.52350   1.00
O2       0.91180    0.52350    0.52350   1.00
O2       1.02350    0.47650    0.58820   1.00
O2       1.08820    0.47650    0.52350   1.00
O2       1.02350    0.41180    0.52350   1.00
O2       1.02350    0.58820    0.47650   1.00
O2       1.08820    0.52350    0.47650   1.00
O2       1.02350    0.52350    0.41180   1.00
O2       0.91180    0.47650    0.47650   1.00
O2       0.97650    0.41180    0.47650   1.00
O2       0.97650    0.47650    0.41180   1.00
C1       1.00000    0.50000    0.60520   1.00
C1       1.00000    0.60520    0.50000   1.00
C1       0.89480    0.50000    0.50000   1.00
C1       1.10520    0.50000    0.50000   1.00
C1       1.00000    0.39480    0.50000   1.00
C1       1.00000    0.50000    0.39480   1.00
O1       0.50000    0.50000    0.50000   1.00
Zn1      0.53280    0.46720    0.46720   1.00
Zn1      0.46720    0.53280    0.46720   1.00
Zn1      0.46720    0.46720    0.53280   1.00
Zn1      0.53280    0.53280    0.53280   1.00
O2       0.52350    0.47650    0.41180   1.00
O2       0.52350    0.41180    0.47650   1.00
O2       0.58820    0.47650    0.47650   1.00
O2       0.47650    0.52350    0.41180   1.00
O2       0.41180    0.52350    0.47650   1.00
O2       0.47650    0.58820    0.47650   1.00
O2       0.47650    0.41180    0.52350   1.00
O2       0.41180    0.47650    0.52350   1.00
O2       0.47650    0.47650    0.58820   1.00
O2       0.58820    0.52350    0.52350   1.00
O2       0.52350    0.58820    0.52350   1.00
O2       0.52350    0.52350    0.58820   1.00
C1       0.50000    0.50000    0.39480   1.00
C1       0.50000    0.39480    0.50000   1.00
C1       0.60520    0.50000    0.50000   1.00
C1       0.39480    0.50000    0.50000   1.00
C1       0.50000    0.60520    0.50000   1.00
C1       0.50000    0.50000    0.60520   1.00
O1       1.00000    1.00000    0.50000   1.00
Zn1      1.03280    0.96720    0.46720   1.00
Zn1      0.96720    1.03280    0.46720   1.00
Zn1      0.96720    0.96720    0.53280   1.00
Zn1      1.03280    1.03280    0.53280   1.00
O2       1.02350    0.97650    0.41180   1.00
O2       1.02350    0.91180    0.47650   1.00
O2       1.08820    0.97650    0.47650   1.00
O2       0.97650    1.02350    0.41180   1.00
O2       0.91180    1.02350    0.47650   1.00
O2       0.97650    1.08820    0.47650   1.00
O2       0.97650    0.91180    0.52350   1.00
O2       0.91180    0.97650    0.52350   1.00
O2       0.97650    0.97650    0.58820   1.00
O2       1.08820    1.02350    0.52350   1.00
O2       1.02350    1.08820    0.52350   1.00
O2       1.02350    1.02350    0.58820   1.00
C1       1.00000    1.00000    0.39480   1.00
C1       1.00000    0.89480    0.50000   1.00
C1       1.10520    1.00000    0.50000   1.00
C1       0.89480    1.00000    0.50000   1.00
C1       1.00000    1.10520    0.50000   1.00
C1       1.00000    1.00000    0.60520   1.00
O1       1.00000    0.50000    1.00000   1.00
Zn1      1.03280    0.46720    0.96720   1.00
Zn1      0.96720    0.53280    0.96720   1.00
Zn1      0.96720    0.46720    1.03280   1.00
Zn1      1.03280    0.53280    1.03280   1.00
O2       1.02350    0.47650    0.91180   1.00
O2       1.02350    0.41180    0.97650   1.00
O2       1.08820    0.47650    0.97650   1.00
O2       0.97650    0.52350    0.91180   1.00
O2       0.91180    0.52350    0.97650   1.00
O2       0.97650    0.58820    0.97650   1.00
O2       0.97650    0.41180    1.02350   1.00
O2       0.91180    0.47650    1.02350   1.00
O2       0.97650    0.47650    1.08820   1.00
O2       1.08820    0.52350    1.02350   1.00
O2       1.02350    0.58820    1.02350   1.00
O2       1.02350    0.52350    1.08820   1.00
C1       1.00000    0.50000    0.89480   1.00
C1       1.00000    0.39480    1.00000   1.00
C1       1.10520    0.50000    1.00000   1.00
C1       0.89480    0.50000    1.00000   1.00
C1       1.00000    0.60520    1.00000   1.00
C1       1.00000    0.50000    1.10520   1.00
O1       0.50000    1.00000    1.00000   1.00
Zn1      0.53280    0.96720    0.96720   1.00
Zn1      0.46720    1.03280    0.96720   1.00
Zn1      0.46720    0.96720    1.03280   1.00
Zn1      0.53280    1.03280    1.03280   1.00
O2       0.52350    0.97650    0.91180   1.00
O2       0.52350    0.91180    0.97650   1.00
O2       0.58820    0.97650    0.97650   1.00
O2       0.47650    1.02350    0.91180   1.00
O2       0.41180    1.02350    0.97650   1.00
O2       0.47650    1.08820    0.97650   1.00
O2       0.47650    0.91180    1.02350   1.00
O2       0.41180    0.97650    1.02350   1.00
O2       0.47650    0.97650    1.08820   1.00
O2       0.58820    1.02350    1.02350   1.00
O2       0.52350    1.08820    1.02350   1.00
O2       0.52350    1.02350    1.08820   1.00
C1       0.50000    1.00000    0.89480   1.00
C1       0.50000    0.89480    1.00000   1.00
C1       0.60520    1.00000    1.00000   1.00
C1       0.39480    1.00000    1.00000   1.00
C1       0.50000    1.10520    1.00000   1.00
C1       0.50000    1.00000    1.10520   1.00
C4       0.74937    0.74955    0.97917   1.00
C4       0.75063    0.75045    1.02083   1.00
C3       0.71369    0.74720    0.95846   1.00
C3       0.72316    0.77162    1.04321   1.00
C3       0.78381    0.75193    0.95643   1.00
C3       0.77912    0.72919    1.04187   1.00
C2       0.74697    0.74967    0.89487   1.00
C2       0.75272    0.75038    1.10514   1.00
C3       0.71260    0.74722    0.91715   1.00
C3       0.72429    0.77159    1.08449   1.00
C3       0.78255    0.75197    0.91514   1.00
C3a      0.78036    0.72908    1.08328   1.00
H1       0.68642    0.74497    0.97425   1.00
H1       0.70089    0.78875    1.02875   1.00
H1       0.68473    0.74530    0.90240   1.00
H1       0.70284    0.78833    1.10056   1.00
H1       0.80952    0.75404    0.89882   1.00
C5       0.81132    0.70562    1.10380   1.00
H1       0.80064    0.71220    1.02622   1.00
H1       0.81193    0.75458    0.97059   1.00
H2       0.80903    0.70895    1.13599   1.00
H2       0.80669    0.67424    1.09705   1.00
N1       0.85023    0.71793    1.09125   1.00
C6       0.86601    0.75353    1.09644   1.00
C6       0.87693    0.69571    1.07288   1.00
C6       0.90317    0.75420    1.08102   1.00
C6       0.91012    0.71742    1.06604   1.00
H3       0.85136    0.77777    1.11049   1.00
H3       0.87270    0.66546    1.06484   1.00
H3       0.92300    0.77874    1.08076   1.00
H3       0.93647    0.70753    1.05180   1.00
C4       0.74955    0.97917    0.74937   1.00
C4       0.75045    1.02083    0.75063   1.00
C3       0.74720    0.95846    0.71369   1.00
C3       0.77162    1.04321    0.72316   1.00
C3       0.75193    0.95643    0.78381   1.00
C3       0.72919    1.04187    0.77912   1.00
C2       0.74967    0.89487    0.74697   1.00
C2       0.75038    1.10514    0.75272   1.00
C3       0.74722    0.91715    0.71260   1.00
C3       0.77159    1.08449    0.72429   1.00
C3       0.75197    0.91514    0.78255   1.00
C3a      0.72908    1.08328    0.78036   1.00
H1       0.74497    0.97425    0.68642   1.00
H1       0.78875    1.02875    0.70089   1.00
H1       0.74530    0.90240    0.68473   1.00
H1       0.78833    1.10056    0.70284   1.00
H1       0.75404    0.89882    0.80952   1.00
C5       0.70562    1.10380    0.81132   1.00
H1       0.71220    1.02622    0.80064   1.00
H1       0.75458    0.97059    0.81193   1.00
H2       0.70895    1.13599    0.80903   1.00
H2       0.67424    1.09705    0.80669   1.00
N1       0.71793    1.09125    0.85023   1.00
C6       0.75353    1.09644    0.86601   1.00
C6       0.69571    1.07288    0.87693   1.00
C6       0.75420    1.08102    0.90317   1.00
C6       0.71742    1.06604    0.91012   1.00
H3       0.77777    1.11049    0.85136   1.00
H3       0.66546    1.06484    0.87270   1.00
H3       0.77874    1.08076    0.92300   1.00
H3       0.70753    1.05180    0.93647   1.00
C4       0.52083    0.74937    0.75045   1.00
C4       0.47917    0.75063    0.74955   1.00
C3       0.54154    0.71369    0.75280   1.00
C3       0.45679    0.72316    0.72838   1.00
C3       0.54357    0.78381    0.74807   1.00
C3       0.45813    0.77912    0.77081   1.00
C2       0.60513    0.74697    0.75033   1.00
C2       0.39486    0.75272    0.74962   1.00
C3       0.58285    0.71260    0.75278   1.00
C3       0.41551    0.72429    0.72841   1.00
C3       0.58486    0.78255    0.74803   1.00
C3a      0.41672    0.78036    0.77092   1.00
H1       0.52575    0.68642    0.75503   1.00
H1       0.47125    0.70089    0.71125   1.00
H1       0.59760    0.68473    0.75470   1.00
H1       0.39944    0.70284    0.71167   1.00
H1       0.60118    0.80952    0.74596   1.00
C5       0.39620    0.81132    0.79438   1.00
H1       0.47378    0.80064    0.78780   1.00
H1       0.52941    0.81193    0.74542   1.00
H2       0.36401    0.80903    0.79105   1.00
H2       0.40295    0.80669    0.82576   1.00
N1       0.40875    0.85023    0.78207   1.00
C6       0.40356    0.86601    0.74647   1.00
C6       0.42712    0.87693    0.80429   1.00
C6       0.41898    0.90317    0.74580   1.00
C6       0.43396    0.91012    0.78258   1.00
H3       0.38951    0.85136    0.72223   1.00
H3       0.43516    0.87270    0.83454   1.00
H3       0.41924    0.92300    0.72126   1.00
H3       0.44820    0.93647    0.79247   1.00
C4       0.97917    0.74937    0.74955   1.00
C4       1.02083    0.75063    0.75045   1.00
C3       0.95846    0.71369    0.74720   1.00
C3       1.04321    0.72316    0.77162   1.00
C3       0.95643    0.78381    0.75193   1.00
C3       1.04187    0.77912    0.72919   1.00
C2       0.89487    0.74697    0.74967   1.00
C2       1.10514    0.75272    0.75038   1.00
C3       0.91715    0.71260    0.74722   1.00
C3       1.08449    0.72429    0.77159   1.00
C3       0.91514    0.78255    0.75197   1.00
C3a      1.08328    0.78036    0.72908   1.00
H1       0.97425    0.68642    0.74497   1.00
H1       1.02875    0.70089    0.78875   1.00
H1       0.90240    0.68473    0.74530   1.00
H1       1.10056    0.70284    0.78833   1.00
H1       0.89882    0.80952    0.75404   1.00
C5       1.10380    0.81132    0.70562   1.00
H1       1.02622    0.80064    0.71220   1.00
H1       0.97059    0.81193    0.75458   1.00
H2       1.13599    0.80903    0.70895   1.00
H2       1.09705    0.80669    0.67424   1.00
N1       1.09125    0.85023    0.71793   1.00
C6       1.09644    0.86601    0.75353   1.00
C6       1.07288    0.87693    0.69571   1.00
C6       1.08102    0.90317    0.75420   1.00
C6       1.06604    0.91012    0.71742   1.00
H3       1.11049    0.85136    0.77777   1.00
H3       1.06484    0.87270    0.66546   1.00
H3       1.08076    0.92300    0.77874   1.00
H3       1.05180    0.93647    0.70753   1.00
C4       0.75045    0.52083    0.74937   1.00
C4       0.74955    0.47917    0.75063   1.00
C3       0.75280    0.54154    0.71369   1.00
C3       0.72838    0.45679    0.72316   1.00
C3       0.74807    0.54357    0.78381   1.00
C3       0.77081    0.45813    0.77912   1.00
C2       0.75033    0.60513    0.74697   1.00
C2       0.74962    0.39486    0.75272   1.00
C3       0.75278    0.58285    0.71260   1.00
C3       0.72841    0.41551    0.72429   1.00
C3       0.74803    0.58486    0.78255   1.00
C3a      0.77092    0.41672    0.78036   1.00
H1       0.75503    0.52575    0.68642   1.00
H1       0.71125    0.47125    0.70089   1.00
H1       0.75470    0.59760    0.68473   1.00
H1       0.71167    0.39944    0.70284   1.00
H1       0.74596    0.60118    0.80952   1.00
C5       0.79438    0.39620    0.81132   1.00
H1       0.78780    0.47378    0.80064   1.00
H1       0.74542    0.52941    0.81193   1.00
H2       0.79105    0.36401    0.80903   1.00
H2       0.82576    0.40295    0.80669   1.00
N1       0.78207    0.40875    0.85023   1.00
C6       0.74647    0.40356    0.86601   1.00
C6       0.80429    0.42712    0.87693   1.00
C6       0.74580    0.41898    0.90317   1.00
C6       0.78258    0.43396    0.91012   1.00
H3       0.72223    0.38951    0.85136   1.00
H3       0.83454    0.43516    0.87270   1.00
H3       0.72126    0.41924    0.92300   1.00
H3       0.79247    0.44820    0.93647   1.00
C4       0.74937    0.75045    0.52083   1.00
C4       0.75063    0.74955    0.47917   1.00
C3       0.71369    0.75280    0.54154   1.00
C3       0.72316    0.72838    0.45679   1.00
C3       0.78381    0.74807    0.54357   1.00
C3       0.77912    0.77081    0.45813   1.00
C2       0.74697    0.75033    0.60513   1.00
C2       0.75272    0.74962    0.39486   1.00
C3       0.71260    0.75278    0.58285   1.00
C3       0.72429    0.72841    0.41551   1.00
C3       0.78255    0.74803    0.58486   1.00
C3a      0.78036    0.77092    0.41672   1.00
H1       0.68642    0.75503    0.52575   1.00
H1       0.70089    0.71125    0.47125   1.00
H1       0.68473    0.75470    0.59760   1.00
H1       0.70284    0.71167    0.39944   1.00
H1       0.80952    0.74596    0.60118   1.00
C5       0.81132    0.79438    0.39620   1.00
H1       0.80064    0.78780    0.47378   1.00
H1       0.81193    0.74542    0.52941   1.00
H2       0.80903    0.79105    0.36401   1.00
H2       0.80669    0.82576    0.40295   1.00
N1       0.85023    0.78207    0.40875   1.00
C6       0.86601    0.74647    0.40356   1.00
C6       0.87693    0.80429    0.42712   1.00
C6       0.90317    0.74580    0.41898   1.00
C6       0.91012    0.78258    0.43396   1.00
H3       0.85136    0.72223    0.38951   1.00
H3       0.87270    0.83454    0.43516   1.00
H3       0.92300    0.72126    0.41924   1.00
H3       0.93647    0.79247    0.44820   1.00
C4       0.24937    0.24955    0.97917   1.00
C4       0.25063    0.25045    1.02083   1.00
C3       0.21369    0.24720    0.95846   1.00
C3       0.22316    0.27162    1.04321   1.00
C3       0.28381    0.25193    0.95643   1.00
C3       0.27912    0.22919    1.04187   1.00
C2       0.24697    0.24967    0.89487   1.00
C2       0.25272    0.25038    1.10514   1.00
C3       0.21260    0.24722    0.91715   1.00
C3       0.22429    0.27159    1.08449   1.00
C3       0.28255    0.25197    0.91514   1.00
C3a      0.28036    0.22908    1.08328   1.00
H1       0.18642    0.24497    0.97425   1.00
H1       0.20089    0.28875    1.02875   1.00
H1       0.18473    0.24530    0.90240   1.00
H1       0.20284    0.28833    1.10056   1.00
H1       0.30952    0.25404    0.89882   1.00
C5       0.31132    0.20562    1.10380   1.00
H1       0.30064    0.21220    1.02622   1.00
H1       0.31193    0.25458    0.97059   1.00
H2       0.30903    0.20895    1.13599   1.00
H2       0.30669    0.17424    1.09705   1.00
N1       0.35023    0.21793    1.09125   1.00
C6       0.36601    0.25353    1.09644   1.00
C6       0.37693    0.19571    1.07288   1.00
C6       0.40317    0.25420    1.08102   1.00
C6       0.41012    0.21742    1.06604   1.00
H3       0.35136    0.27777    1.11049   1.00
H3       0.37270    0.16546    1.06484   1.00
H3       0.42300    0.27874    1.08076   1.00
H3       0.43647    0.20753    1.05180   1.00
C4       0.24955    0.47917    0.74937   1.00
C4       0.25045    0.52083    0.75063   1.00
C3       0.24720    0.45846    0.71369   1.00
C3       0.27162    0.54321    0.72316   1.00
C3       0.25193    0.45643    0.78381   1.00
C3       0.22919    0.54187    0.77912   1.00
C2       0.24967    0.39487    0.74697   1.00
C2       0.25038    0.60514    0.75272   1.00
C3       0.24722    0.41715    0.71260   1.00
C3       0.27159    0.58449    0.72429   1.00
C3       0.25197    0.41514    0.78255   1.00
C3a      0.22908    0.58328    0.78036   1.00
H1       0.24497    0.47425    0.68642   1.00
H1       0.28875    0.52875    0.70089   1.00
H1       0.24530    0.40240    0.68473   1.00
H1       0.28833    0.60056    0.70284   1.00
H1       0.25404    0.39882    0.80952   1.00
C5       0.20562    0.60380    0.81132   1.00
H1       0.21220    0.52622    0.80064   1.00
H1       0.25458    0.47059    0.81193   1.00
H2       0.20895    0.63599    0.80903   1.00
H2       0.17424    0.59705    0.80669   1.00
N1       0.21793    0.59125    0.85023   1.00
C6       0.25353    0.59644    0.86601   1.00
C6       0.19571    0.57288    0.87693   1.00
C6       0.25420    0.58102    0.90317   1.00
C6       0.21742    0.56604    0.91012   1.00
H3       0.27777    0.61049    0.85136   1.00
H3       0.16546    0.56484    0.87270   1.00
H3       0.27874    0.58076    0.92300   1.00
H3       0.20753    0.55180    0.93647   1.00
C4       0.02083    0.24937    0.75045   1.00
C4       -0.02083   0.25063    0.74955   1.00
C3       0.04154    0.21369    0.75280   1.00
C3       -0.04321   0.22316    0.72838   1.00
C3       0.04357    0.28381    0.74807   1.00
C3       -0.04187   0.27912    0.77081   1.00
C2       0.10513    0.24697    0.75033   1.00
C2       -0.10514   0.25272    0.74962   1.00
C3       0.08285    0.21260    0.75278   1.00
C3       -0.08449   0.22429    0.72841   1.00
C3       0.08486    0.28255    0.74803   1.00
C3a      -0.08328   0.28036    0.77092   1.00
H1       0.02575    0.18642    0.75503   1.00
H1       -0.02875   0.20089    0.71125   1.00
H1       0.09760    0.18473    0.75470   1.00
H1       -0.10056   0.20284    0.71167   1.00
H1       0.10118    0.30952    0.74596   1.00
C5       -0.10380   0.31132    0.79438   1.00
H1       -0.02622   0.30064    0.78780   1.00
H1       0.02941    0.31193    0.74542   1.00
H2       -0.13599   0.30903    0.79105   1.00
H2       -0.09705   0.30669    0.82576   1.00
N1       -0.09125   0.35023    0.78207   1.00
C6       -0.09644   0.36601    0.74647   1.00
C6       -0.07288   0.37693    0.80429   1.00
C6       -0.08102   0.40317    0.74580   1.00
C6       -0.06604   0.41012    0.78258   1.00
H3       -0.11049   0.35136    0.72223   1.00
H3       -0.06484   0.37270    0.83454   1.00
H3       -0.08076   0.42300    0.72126   1.00
H3       -0.05180   0.43647    0.79247   1.00
C4       0.47917    0.24937    0.74955   1.00
C4       0.52083    0.25063    0.75045   1.00
C3       0.45846    0.21369    0.74720   1.00
C3       0.54321    0.22316    0.77162   1.00
C3       0.45643    0.28381    0.75193   1.00
C3       0.54187    0.27912    0.72919   1.00
C2       0.39487    0.24697    0.74967   1.00
C2       0.60514    0.25272    0.75038   1.00
C3       0.41715    0.21260    0.74722   1.00
C3       0.58449    0.22429    0.77159   1.00
C3       0.41514    0.28255    0.75197   1.00
C3a      0.58328    0.28036    0.72908   1.00
H1       0.47425    0.18642    0.74497   1.00
H1       0.52875    0.20089    0.78875   1.00
H1       0.40240    0.18473    0.74530   1.00
H1       0.60056    0.20284    0.78833   1.00
H1       0.39882    0.30952    0.75404   1.00
C5       0.60380    0.31132    0.70562   1.00
H1       0.52622    0.30064    0.71220   1.00
H1       0.47059    0.31193    0.75458   1.00
H2       0.63599    0.30903    0.70895   1.00
H2       0.59705    0.30669    0.67424   1.00
N1       0.59125    0.35023    0.71793   1.00
C6       0.59644    0.36601    0.75353   1.00
C6       0.57288    0.37693    0.69571   1.00
C6       0.58102    0.40317    0.75420   1.00
C6       0.56604    0.41012    0.71742   1.00
H3       0.61049    0.35136    0.77777   1.00
H3       0.56484    0.37270    0.66546   1.00
H3       0.58076    0.42300    0.77874   1.00
H3       0.55180    0.43647    0.70753   1.00
C4       0.25045    0.02083    0.74937   1.00
C4       0.24955    -0.02083   0.75063   1.00
C3       0.25280    0.04154    0.71369   1.00
C3       0.22838    -0.04321   0.72316   1.00
C3       0.24807    0.04357    0.78381   1.00
C3       0.27081    -0.04187   0.77912   1.00
C2       0.25033    0.10513    0.74697   1.00
C2       0.24962    -0.10514   0.75272   1.00
C3       0.25278    0.08285    0.71260   1.00
C3       0.22841    -0.08449   0.72429   1.00
C3       0.24803    0.08486    0.78255   1.00
C3a      0.27092    -0.08328   0.78036   1.00
H1       0.25503    0.02575    0.68642   1.00
H1       0.21125    -0.02875   0.70089   1.00
H1       0.25470    0.09760    0.68473   1.00
H1       0.21167    -0.10056   0.70284   1.00
H1       0.24596    0.10118    0.80952   1.00
C5       0.29438    -0.10380   0.81132   1.00
H1       0.28780    -0.02622   0.80064   1.00
H1       0.24542    0.02941    0.81193   1.00
H2       0.29105    -0.13599   0.80903   1.00
H2       0.32576    -0.09705   0.80669   1.00
N1       0.28207    -0.09125   0.85023   1.00
C6       0.24647    -0.09644   0.86601   1.00
C6       0.30429    -0.07288   0.87693   1.00
C6       0.24580    -0.08102   0.90317   1.00
C6       0.28258    -0.06604   0.91012   1.00
H3       0.22223    -0.11049   0.85136   1.00
H3       0.33454    -0.06484   0.87270   1.00
H3       0.22126    -0.08076   0.92300   1.00
H3       0.29247    -0.05180   0.93647   1.00
C4       0.24937    0.25045    0.52083   1.00
C4       0.25063    0.24955    0.47917   1.00
C3       0.21369    0.25280    0.54154   1.00
C3       0.22316    0.22838    0.45679   1.00
C3       0.28381    0.24807    0.54357   1.00
C3       0.27912    0.27081    0.45813   1.00
C2       0.24697    0.25033    0.60513   1.00
C2       0.25272    0.24962    0.39486   1.00
C3       0.21260    0.25278    0.58285   1.00
C3       0.22429    0.22841    0.41551   1.00
C3       0.28255    0.24803    0.58486   1.00
C3a      0.28036    0.27092    0.41672   1.00
H1       0.18642    0.25503    0.52575   1.00
H1       0.20089    0.21125    0.47125   1.00
H1       0.18473    0.25470    0.59760   1.00
H1       0.20284    0.21167    0.39944   1.00
H1       0.30952    0.24596    0.60118   1.00
C5       0.31132    0.29438    0.39620   1.00
H1       0.30064    0.28780    0.47378   1.00
H1       0.31193    0.24542    0.52941   1.00
H2       0.30903    0.29105    0.36401   1.00
H2       0.30669    0.32576    0.40295   1.00
N1       0.35023    0.28207    0.40875   1.00
C6       0.36601    0.24647    0.40356   1.00
C6       0.37693    0.30429    0.42712   1.00
C6       0.40317    0.24580    0.41898   1.00
C6       0.41012    0.28258    0.43396   1.00
H3       0.35136    0.22223    0.38951   1.00
H3       0.37270    0.33454    0.43516   1.00
H3       0.42300    0.22126    0.41924   1.00
H3       0.43647    0.29247    0.44820   1.00
C4       0.24937    0.74955    0.47917   1.00
C4       0.25063    0.75045    0.52083   1.00
C3       0.21369    0.74720    0.45846   1.00
C3       0.22316    0.77162    0.54321   1.00
C3       0.28381    0.75193    0.45643   1.00
C3       0.27912    0.72919    0.54187   1.00
C2       0.24697    0.74967    0.39487   1.00
C2       0.25272    0.75038    0.60514   1.00
C3       0.21260    0.74722    0.41715   1.00
C3       0.22429    0.77159    0.58449   1.00
C3       0.28255    0.75197    0.41514   1.00
C3a      0.28036    0.72908    0.58328   1.00
H1       0.18642    0.74497    0.47425   1.00
H1       0.20089    0.78875    0.52875   1.00
H1       0.18473    0.74530    0.40240   1.00
H1       0.20284    0.78833    0.60056   1.00
H1       0.30952    0.75404    0.39882   1.00
C5       0.31132    0.70562    0.60380   1.00
H1       0.30064    0.71220    0.52622   1.00
H1       0.31193    0.75458    0.47059   1.00
H2       0.30903    0.70895    0.63599   1.00
H2       0.30669    0.67424    0.59705   1.00
N1       0.35023    0.71793    0.59125   1.00
C6       0.36601    0.75353    0.59644   1.00
C6       0.37693    0.69571    0.57288   1.00
C6       0.40317    0.75420    0.58102   1.00
C6       0.41012    0.71742    0.56604   1.00
H3       0.35136    0.77777    0.61049   1.00
H3       0.37270    0.66546    0.56484   1.00
H3       0.42300    0.77874    0.58076   1.00
H3       0.43647    0.70753    0.55180   1.00
C4       0.24955    0.97917    0.24937   1.00
C4       0.25045    1.02083    0.25063   1.00
C3       0.24720    0.95846    0.21369   1.00
C3       0.27162    1.04321    0.22316   1.00
C3       0.25193    0.95643    0.28381   1.00
C3       0.22919    1.04187    0.27912   1.00
C2       0.24967    0.89487    0.24697   1.00
C2       0.25038    1.10514    0.25272   1.00
C3       0.24722    0.91715    0.21260   1.00
C3       0.27159    1.08449    0.22429   1.00
C3       0.25197    0.91514    0.28255   1.00
C3a      0.22908    1.08328    0.28036   1.00
H1       0.24497    0.97425    0.18642   1.00
H1       0.28875    1.02875    0.20089   1.00
H1       0.24530    0.90240    0.18473   1.00
H1       0.28833    1.10056    0.20284   1.00
H1       0.25404    0.89882    0.30952   1.00
C5       0.20562    1.10380    0.31132   1.00
H1       0.21220    1.02622    0.30064   1.00
H1       0.25458    0.97059    0.31193   1.00
H2       0.20895    1.13599    0.30903   1.00
H2       0.17424    1.09705    0.30669   1.00
N1       0.21793    1.09125    0.35023   1.00
C6       0.25353    1.09644    0.36601   1.00
C6       0.19571    1.07288    0.37693   1.00
C6       0.25420    1.08102    0.40317   1.00
C6       0.21742    1.06604    0.41012   1.00
H3       0.27777    1.11049    0.35136   1.00
H3       0.16546    1.06484    0.37270   1.00
H3       0.27874    1.08076    0.42300   1.00
H3       0.20753    1.05180    0.43647   1.00
C4       0.02083    0.74937    0.25045   1.00
C4       -0.02083   0.75063    0.24955   1.00
C3       0.04154    0.71369    0.25280   1.00
C3       -0.04321   0.72316    0.22838   1.00
C3       0.04357    0.78381    0.24807   1.00
C3       -0.04187   0.77912    0.27081   1.00
C2       0.10513    0.74697    0.25033   1.00
C2       -0.10514   0.75272    0.24962   1.00
C3       0.08285    0.71260    0.25278   1.00
C3       -0.08449   0.72429    0.22841   1.00
C3       0.08486    0.78255    0.24803   1.00
C3a      -0.08328   0.78036    0.27092   1.00
H1       0.02575    0.68642    0.25503   1.00
H1       -0.02875   0.70089    0.21125   1.00
H1       0.09760    0.68473    0.25470   1.00
H1       -0.10056   0.70284    0.21167   1.00
H1       0.10118    0.80952    0.24596   1.00
C5       -0.10380   0.81132    0.29438   1.00
H1       -0.02622   0.80064    0.28780   1.00
H1       0.02941    0.81193    0.24542   1.00
H2       -0.13599   0.80903    0.29105   1.00
H2       -0.09705   0.80669    0.32576   1.00
N1       -0.09125   0.85023    0.28207   1.00
C6       -0.09644   0.86601    0.24647   1.00
C6       -0.07288   0.87693    0.30429   1.00
C6       -0.08102   0.90317    0.24580   1.00
C6       -0.06604   0.91012    0.28258   1.00
H3       -0.11049   0.85136    0.22223   1.00
H3       -0.06484   0.87270    0.33454   1.00
H3       -0.08076   0.92300    0.22126   1.00
H3       -0.05180   0.93647    0.29247   1.00
C4       0.47917    0.74937    0.24955   1.00
C4       0.52083    0.75063    0.25045   1.00
C3       0.45846    0.71369    0.24720   1.00
C3       0.54321    0.72316    0.27162   1.00
C3       0.45643    0.78381    0.25193   1.00
C3       0.54187    0.77912    0.22919   1.00
C2       0.39487    0.74697    0.24967   1.00
C2       0.60514    0.75272    0.25038   1.00
C3       0.41715    0.71260    0.24722   1.00
C3       0.58449    0.72429    0.27159   1.00
C3       0.41514    0.78255    0.25197   1.00
C3a      0.58328    0.78036    0.22908   1.00
H1       0.47425    0.68642    0.24497   1.00
H1       0.52875    0.70089    0.28875   1.00
H1       0.40240    0.68473    0.24530   1.00
H1       0.60056    0.70284    0.28833   1.00
H1       0.39882    0.80952    0.25404   1.00
C5       0.60380    0.81132    0.20562   1.00
H1       0.52622    0.80064    0.21220   1.00
H1       0.47059    0.81193    0.25458   1.00
H2       0.63599    0.80903    0.20895   1.00
H2       0.59705    0.80669    0.17424   1.00
N1       0.59125    0.85023    0.21793   1.00
C6       0.59644    0.86601    0.25353   1.00
C6       0.57288    0.87693    0.19571   1.00
C6       0.58102    0.90317    0.25420   1.00
C6       0.56604    0.91012    0.21742   1.00
H3       0.61049    0.85136    0.27777   1.00
H3       0.56484    0.87270    0.16546   1.00
H3       0.58076    0.92300    0.27874   1.00
H3       0.55180    0.93647    0.20753   1.00
C4       0.25045    0.52083    0.24937   1.00
C4       0.24955    0.47917    0.25063   1.00
C3       0.25280    0.54154    0.21369   1.00
C3       0.22838    0.45679    0.22316   1.00
C3       0.24807    0.54357    0.28381   1.00
C3       0.27081    0.45813    0.27912   1.00
C2       0.25033    0.60513    0.24697   1.00
C2       0.24962    0.39486    0.25272   1.00
C3       0.25278    0.58285    0.21260   1.00
C3       0.22841    0.41551    0.22429   1.00
C3       0.24803    0.58486    0.28255   1.00
C3a      0.27092    0.41672    0.28036   1.00
H1       0.25503    0.52575    0.18642   1.00
H1       0.21125    0.47125    0.20089   1.00
H1       0.25470    0.59760    0.18473   1.00
H1       0.21167    0.39944    0.20284   1.00
H1       0.24596    0.60118    0.30952   1.00
C5       0.29438    0.39620    0.31132   1.00
H1       0.28780    0.47378    0.30064   1.00
H1       0.24542    0.52941    0.31193   1.00
H2       0.29105    0.36401    0.30903   1.00
H2       0.32576    0.40295    0.30669   1.00
N1       0.28207    0.40875    0.35023   1.00
C6       0.24647    0.40356    0.36601   1.00
C6       0.30429    0.42712    0.37693   1.00
C6       0.24580    0.41898    0.40317   1.00
C6       0.28258    0.43396    0.41012   1.00
H3       0.22223    0.38951    0.35136   1.00
H3       0.33454    0.43516    0.37270   1.00
H3       0.22126    0.41924    0.42300   1.00
H3       0.29247    0.44820    0.43647   1.00
C4       0.24937    0.75045    0.02083   1.00
C4       0.25063    0.74955    -0.02083   1.00
C3       0.21369    0.75280    0.04154   1.00
C3       0.22316    0.72838    -0.04321   1.00
C3       0.28381    0.74807    0.04357   1.00
C3       0.27912    0.77081    -0.04187   1.00
C2       0.24697    0.75033    0.10513   1.00
C2       0.25272    0.74962    -0.10514   1.00
C3       0.21260    0.75278    0.08285   1.00
C3       0.22429    0.72841    -0.08449   1.00
C3       0.28255    0.74803    0.08486   1.00
C3a      0.28036    0.77092    -0.08328   1.00
H1       0.18642    0.75503    0.02575   1.00
H1       0.20089    0.71125    -0.02875   1.00
H1       0.18473    0.75470    0.09760   1.00
H1       0.20284    0.71167    -0.10056   1.00
H1       0.30952    0.74596    0.10118   1.00
C5       0.31132    0.79438    -0.10380   1.00
H1       0.30064    0.78780    -0.02622   1.00
H1       0.31193    0.74542    0.02941   1.00
H2       0.30903    0.79105    -0.13599   1.00
H2       0.30669    0.82576    -0.09705   1.00
N1       0.35023    0.78207    -0.09125   1.00
C6       0.36601    0.74647    -0.09644   1.00
C6       0.37693    0.80429    -0.07288   1.00
C6       0.40317    0.74580    -0.08102   1.00
C6       0.41012    0.78258    -0.06604   1.00
H3       0.35136    0.72223    -0.11049   1.00
H3       0.37270    0.83454    -0.06484   1.00
H3       0.42300    0.72126    -0.08076   1.00
H3       0.43647    0.79247    -0.05180   1.00
C4       0.74937    0.24955    0.47917   1.00
C4       0.75063    0.25045    0.52083   1.00
C3       0.71369    0.24720    0.45846   1.00
C3       0.72316    0.27162    0.54321   1.00
C3       0.78381    0.25193    0.45643   1.00
C3       0.77912    0.22919    0.54187   1.00
C2       0.74697    0.24967    0.39487   1.00
C2       0.75272    0.25038    0.60514   1.00
C3       0.71260    0.24722    0.41715   1.00
C3       0.72429    0.27159    0.58449   1.00
C3       0.78255    0.25197    0.41514   1.00
C3a      0.78036    0.22908    0.58328   1.00
H1       0.68642    0.24497    0.47425   1.00
H1       0.70089    0.28875    0.52875   1.00
H1       0.68473    0.24530    0.40240   1.00
H1       0.70284    0.28833    0.60056   1.00
H1       0.80952    0.25404    0.39882   1.00
C5       0.81132    0.20562    0.60380   1.00
H1       0.80064    0.21220    0.52622   1.00
H1       0.81193    0.25458    0.47059   1.00
H2       0.80903    0.20895    0.63599   1.00
H2       0.80669    0.17424    0.59705   1.00
N1       0.85023    0.21793    0.59125   1.00
C6       0.86601    0.25353    0.59644   1.00
C6       0.87693    0.19571    0.57288   1.00
C6       0.90317    0.25420    0.58102   1.00
C6       0.91012    0.21742    0.56604   1.00
H3       0.85136    0.27777    0.61049   1.00
H3       0.87270    0.16546    0.56484   1.00
H3       0.92300    0.27874    0.58076   1.00
H3       0.93647    0.20753    0.55180   1.00
C4       0.74955    0.47917    0.24937   1.00
C4       0.75045    0.52083    0.25063   1.00
C3       0.74720    0.45846    0.21369   1.00
C3       0.77162    0.54321    0.22316   1.00
C3       0.75193    0.45643    0.28381   1.00
C3       0.72919    0.54187    0.27912   1.00
C2       0.74967    0.39487    0.24697   1.00
C2       0.75038    0.60514    0.25272   1.00
C3       0.74722    0.41715    0.21260   1.00
C3       0.77159    0.58449    0.22429   1.00
C3       0.75197    0.41514    0.28255   1.00
C3a      0.72908    0.58328    0.28036   1.00
H1       0.74497    0.47425    0.18642   1.00
H1       0.78875    0.52875    0.20089   1.00
H1       0.74530    0.40240    0.18473   1.00
H1       0.78833    0.60056    0.20284   1.00
H1       0.75404    0.39882    0.30952   1.00
C5       0.70562    0.60380    0.31132   1.00
H1       0.71220    0.52622    0.30064   1.00
H1       0.75458    0.47059    0.31193   1.00
H2       0.70895    0.63599    0.30903   1.00
H2       0.67424    0.59705    0.30669   1.00
N1       0.71793    0.59125    0.35023   1.00
C6       0.75353    0.59644    0.36601   1.00
C6       0.69571    0.57288    0.37693   1.00
C6       0.75420    0.58102    0.40317   1.00
C6       0.71742    0.56604    0.41012   1.00
H3       0.77777    0.61049    0.35136   1.00
H3       0.66546    0.56484    0.37270   1.00
H3       0.77874    0.58076    0.42300   1.00
H3       0.70753    0.55180    0.43647   1.00
C4       0.52083    0.24937    0.25045   1.00
C4       0.47917    0.25063    0.24955   1.00
C3       0.54154    0.21369    0.25280   1.00
C3       0.45679    0.22316    0.22838   1.00
C3       0.54357    0.28381    0.24807   1.00
C3       0.45813    0.27912    0.27081   1.00
C2       0.60513    0.24697    0.25033   1.00
C2       0.39486    0.25272    0.24962   1.00
C3       0.58285    0.21260    0.25278   1.00
C3       0.41551    0.22429    0.22841   1.00
C3       0.58486    0.28255    0.24803   1.00
C3a      0.41672    0.28036    0.27092   1.00
H1       0.52575    0.18642    0.25503   1.00
H1       0.47125    0.20089    0.21125   1.00
H1       0.59760    0.18473    0.25470   1.00
H1       0.39944    0.20284    0.21167   1.00
H1       0.60118    0.30952    0.24596   1.00
C5       0.39620    0.31132    0.29438   1.00
H1       0.47378    0.30064    0.28780   1.00
H1       0.52941    0.31193    0.24542   1.00
H2       0.36401    0.30903    0.29105   1.00
H2       0.40295    0.30669    0.32576   1.00
N1       0.40875    0.35023    0.28207   1.00
C6       0.40356    0.36601    0.24647   1.00
C6       0.42712    0.37693    0.30429   1.00
C6       0.41898    0.40317    0.24580   1.00
C6       0.43396    0.41012    0.28258   1.00
H3       0.38951    0.35136    0.22223   1.00
H3       0.43516    0.37270    0.33454   1.00
H3       0.41924    0.42300    0.22126   1.00
H3       0.44820    0.43647    0.29247   1.00
C4       0.97917    0.24937    0.24955   1.00
C4       1.02083    0.25063    0.25045   1.00
C3       0.95846    0.21369    0.24720   1.00
C3       1.04321    0.22316    0.27162   1.00
C3       0.95643    0.28381    0.25193   1.00
C3       1.04187    0.27912    0.22919   1.00
C2       0.89487    0.24697    0.24967   1.00
C2       1.10514    0.25272    0.25038   1.00
C3       0.91715    0.21260    0.24722   1.00
C3       1.08449    0.22429    0.27159   1.00
C3       0.91514    0.28255    0.25197   1.00
C3a      1.08328    0.28036    0.22908   1.00
H1       0.97425    0.18642    0.24497   1.00
H1       1.02875    0.20089    0.28875   1.00
H1       0.90240    0.18473    0.24530   1.00
H1       1.10056    0.20284    0.28833   1.00
H1       0.89882    0.30952    0.25404   1.00
C5       1.10380    0.31132    0.20562   1.00
H1       1.02622    0.30064    0.21220   1.00
H1       0.97059    0.31193    0.25458   1.00
H2       1.13599    0.30903    0.20895   1.00
H2       1.09705    0.30669    0.17424   1.00
N1       1.09125    0.35023    0.21793   1.00
C6       1.09644    0.36601    0.25353   1.00
C6       1.07288    0.37693    0.19571   1.00
C6       1.08102    0.40317    0.25420   1.00
C6       1.06604    0.41012    0.21742   1.00
H3       1.11049    0.35136    0.27777   1.00
H3       1.06484    0.37270    0.16546   1.00
H3       1.08076    0.42300    0.27874   1.00
H3       1.05180    0.43647    0.20753   1.00
C4       0.75045    0.02083    0.24937   1.00
C4       0.74955    -0.02083   0.25063   1.00
C3       0.75280    0.04154    0.21369   1.00
C3       0.72838    -0.04321   0.22316   1.00
C3       0.74807    0.04357    0.28381   1.00
C3       0.77081    -0.04187   0.27912   1.00
C2       0.75033    0.10513    0.24697   1.00
C2       0.74962    -0.10514   0.25272   1.00
C3       0.75278    0.08285    0.21260   1.00
C3       0.72841    -0.08449   0.22429   1.00
C3       0.74803    0.08486    0.28255   1.00
C3a      0.77092    -0.08328   0.28036   1.00
H1       0.75503    0.02575    0.18642   1.00
H1       0.71125    -0.02875   0.20089   1.00
H1       0.75470    0.09760    0.18473   1.00
H1       0.71167    -0.10056   0.20284   1.00
H1       0.74596    0.10118    0.30952   1.00
C5       0.79438    -0.10380   0.31132   1.00
H1       0.78780    -0.02622   0.30064   1.00
H1       0.74542    0.02941    0.31193   1.00
H2       0.79105    -0.13599   0.30903   1.00
H2       0.82576    -0.09705   0.30669   1.00
N1       0.78207    -0.09125   0.35023   1.00
C6       0.74647    -0.09644   0.36601   1.00
C6       0.80429    -0.07288   0.37693   1.00
C6       0.74580    -0.08102   0.40317   1.00
C6       0.78258    -0.06604   0.41012   1.00
H3       0.72223    -0.11049   0.35136   1.00
H3       0.83454    -0.06484   0.37270   1.00
H3       0.72126    -0.08076   0.42300   1.00
H3       0.79247    -0.05180   0.43647   1.00
C4       0.74937    0.25045    0.02083   1.00
C4       0.75063    0.24955    -0.02083   1.00
C3       0.71369    0.25280    0.04154   1.00
C3       0.72316    0.22838    -0.04321   1.00
C3       0.78381    0.24807    0.04357   1.00
C3       0.77912    0.27081    -0.04187   1.00
C2       0.74697    0.25033    0.10513   1.00
C2       0.75272    0.24962    -0.10514   1.00
C3       0.71260    0.25278    0.08285   1.00
C3       0.72429    0.22841    -0.08449   1.00
C3       0.78255    0.24803    0.08486   1.00
C3a      0.78036    0.27092    -0.08328   1.00
H1       0.68642    0.25503    0.02575   1.00
H1       0.70089    0.21125    -0.02875   1.00
H1       0.68473    0.25470    0.09760   1.00
H1       0.70284    0.21167    -0.10056   1.00
H1       0.80952    0.24596    0.10118   1.00
C5       0.81132    0.29438    -0.10380   1.00
H1       0.80064    0.28780    -0.02622   1.00
H1       0.81193    0.24542    0.02941   1.00
H2       0.80903    0.29105    -0.13599   1.00
H2       0.80669    0.32576    -0.09705   1.00
N1       0.85023    0.28207    -0.09125   1.00
C6       0.86601    0.24647    -0.09644   1.00
C6       0.87693    0.30429    -0.07288   1.00
C6       0.90317    0.24580    -0.08102   1.00
C6       0.91012    0.28258    -0.06604   1.00
H3       0.85136    0.22223    -0.11049   1.00
H3       0.87270    0.33454    -0.06484   1.00
H3       0.92300    0.22126    -0.08076   1.00
H3       0.93647    0.29247    -0.05180   1.00
C4       0.99937    0.99955    1.22917   1.00
C4       1.00063    1.00045    1.27083   1.00
C3       0.96369    0.99720    1.20846   1.00
C3       0.97316    1.02162    1.29321   1.00
C3       1.03381    1.00193    1.20643   1.00
C3       1.02912    0.97919    1.29187   1.00
C2       0.99697    0.99967    1.14487   1.00
C2       1.00272    1.00038    1.35514   1.00
C3       0.96260    0.99722    1.16715   1.00
C3       0.97429    1.02159    1.33449   1.00
C3       1.03255    1.00197    1.16514   1.00
C3a      1.03036    0.97908    1.33328   1.00
H1       0.93642    0.99497    1.22425   1.00
H1       0.95089    1.03875    1.27875   1.00
H1       0.93473    0.99530    1.15240   1.00
H1       0.95284    1.03833    1.35056   1.00
H1       1.05952    1.00404    1.14882   1.00
C5       1.06132    0.95562    1.35380   1.00
H1       1.05064    0.96220    1.27622   1.00
H1       1.06193    1.00458    1.22059   1.00
H2       1.05903    0.95895    1.38599   1.00
H2       1.05669    0.92424    1.34705   1.00
N1       1.10023    0.96793    1.34125   1.00
C6       1.11601    1.00353    1.34644   1.00
C6       1.12693    0.94571    1.32288   1.00
C6       1.15317    1.00420    1.33102   1.00
C6       1.16012    0.96742    1.31604   1.00
H3       1.10136    1.02777    1.36049   1.00
H3       1.12270    0.91546    1.31484   1.00
H3       1.17300    1.02874    1.33076   1.00
H3       1.18647    0.95753    1.30180   1.00
C4       0.99955    1.22917    0.99937   1.00
C4       1.00045    1.27083    1.00063   1.00
C3       0.99720    1.20846    0.96369   1.00
C3       1.02162    1.29321    0.97316   1.00
C3       1.00193    1.20643    1.03381   1.00
C3       0.97919    1.29187    1.02912   1.00
C2       0.99967    1.14487    0.99697   1.00
C2       1.00038    1.35514    1.00272   1.00
C3       0.99722    1.16715    0.96260   1.00
C3       1.02159    1.33449    0.97429   1.00
C3       1.00197    1.16514    1.03255   1.00
C3a      0.97908    1.33328    1.03036   1.00
H1       0.99497    1.22425    0.93642   1.00
H1       1.03875    1.27875    0.95089   1.00
H1       0.99530    1.15240    0.93473   1.00
H1       1.03833    1.35056    0.95284   1.00
H1       1.00404    1.14882    1.05952   1.00
C5       0.95562    1.35380    1.06132   1.00
H1       0.96220    1.27622    1.05064   1.00
H1       1.00458    1.22059    1.06193   1.00
H2       0.95895    1.38599    1.05903   1.00
H2       0.92424    1.34705    1.05669   1.00
N1       0.96793    1.34125    1.10023   1.00
C6       1.00353    1.34644    1.11601   1.00
C6       0.94571    1.32288    1.12693   1.00
C6       1.00420    1.33102    1.15317   1.00
C6       0.96742    1.31604    1.16012   1.00
H3       1.02777    1.36049    1.10136   1.00
H3       0.91546    1.31484    1.12270   1.00
H3       1.02874    1.33076    1.17300   1.00
H3       0.95753    1.30180    1.18647   1.00
C4       0.77083    0.99937    1.00045   1.00
C4       0.72917    1.00063    0.99955   1.00
C3       0.79154    0.96369    1.00280   1.00
C3       0.70679    0.97316    0.97838   1.00
C3       0.79357    1.03381    0.99807   1.00
C3       0.70813    1.02912    1.02081   1.00
C2       0.85513    0.99697    1.00033   1.00
C2       0.64486    1.00272    0.99962   1.00
C3       0.83285    0.96260    1.00278   1.00
C3       0.66551    0.97429    0.97841   1.00
C3       0.83486    1.03255    0.99803   1.00
C3a      0.66672    1.03036    1.02092   1.00
H1       0.77575    0.93642    1.00503   1.00
H1       0.72125    0.95089    0.96125   1.00
H1       0.84760    0.93473    1.00470   1.00
H1       0.64944    0.95284    0.96167   1.00
H1       0.85118    1.05952    0.99596   1.00
C5       0.64620    1.06132    1.04438   1.00
H1       0.72378    1.05064    1.03780   1.00
H1       0.77941    1.06193    0.99542   1.00
H2       0.61401    1.05903    1.04105   1.00
H2       0.65295    1.05669    1.07576   1.00
N1       0.65875    1.10023    1.03207   1.00
C6       0.65356    1.11601    0.99647   1.00
C6       0.67712    1.12693    1.05429   1.00
C6       0.66898    1.15317    0.99580   1.00
C6       0.68396    1.16012    1.03258   1.00
H3       0.63951    1.10136    0.97223   1.00
H3       0.68516    1.12270    1.08454   1.00
H3       0.66924    1.17300    0.97126   1.00
H3       0.69820    1.18647    1.04247   1.00
C4       1.22917    0.99937    0.99955   1.00
C4       1.27083    1.00063    1.00045   1.00
C3       1.20846    0.96369    0.99720   1.00
C3       1.29321    0.97316    1.02162   1.00
C3       1.20643    1.03381    1.00193   1.00
C3       1.29187    1.02912    0.97919   1.00
C2       1.14487    0.99697    0.99967   1.00
C2       1.35514    1.00272    1.00038   1.00
C3       1.16715    0.96260    0.99722   1.00
C3       1.33449    0.97429    1.02159   1.00
C3       1.16514    1.03255    1.00197   1.00
C3a      1.33328    1.03036    0.97908   1.00
H1       1.22425    0.93642    0.99497   1.00
H1       1.27875    0.95089    1.03875   1.00
H1       1.15240    0.93473    0.99530   1.00
H1       1.35056    0.95284    1.03833   1.00
H1       1.14882    1.05952    1.00404   1.00
C5       1.35380    1.06132    0.95562   1.00
H1       1.27622    1.05064    0.96220   1.00
H1       1.22059    1.06193    1.00458   1.00
H2       1.38599    1.05903    0.95895   1.00
H2       1.34705    1.05669    0.92424   1.00
N1       1.34125    1.10023    0.96793   1.00
C6       1.34644    1.11601    1.00353   1.00
C6       1.32288    1.12693    0.94571   1.00
C6       1.33102    1.15317    1.00420   1.00
C6       1.31604    1.16012    0.96742   1.00
H3       1.36049    1.10136    1.02777   1.00
H3       1.31484    1.12270    0.91546   1.00
H3       1.33076    1.17300    1.02874   1.00
H3       1.30180    1.18647    0.95753   1.00
C4       1.00045    0.77083    0.99937   1.00
C4       0.99955    0.72917    1.00063   1.00
C3       1.00280    0.79154    0.96369   1.00
C3       0.97838    0.70679    0.97316   1.00
C3       0.99807    0.79357    1.03381   1.00
C3       1.02081    0.70813    1.02912   1.00
C2       1.00033    0.85513    0.99697   1.00
C2       0.99962    0.64486    1.00272   1.00
C3       1.00278    0.83285    0.96260   1.00
C3       0.97841    0.66551    0.97429   1.00
C3       0.99803    0.83486    1.03255   1.00
C3a      1.02092    0.66672    1.03036   1.00
H1       1.00503    0.77575    0.93642   1.00
H1       0.96125    0.72125    0.95089   1.00
H1       1.00470    0.84760    0.93473   1.00
H1       0.96167    0.64944    0.95284   1.00
H1       0.99596    0.85118    1.05952   1.00
C5       1.04438    0.64620    1.06132   1.00
H1       1.03780    0.72378    1.05064   1.00
H1       0.99542    0.77941    1.06193   1.00
H2       1.04105    0.61401    1.05903   1.00
H2       1.07576    0.65295    1.05669   1.00
N1       1.03207    0.65875    1.10023   1.00
C6       0.99647    0.65356    1.11601   1.00
C6       1.05429    0.67712    1.12693   1.00
C6       0.99580    0.66898    1.15317   1.00
C6       1.03258    0.68396    1.16012   1.00
H3       0.97223    0.63951    1.10136   1.00
H3       1.08454    0.68516    1.12270   1.00
H3       0.97126    0.66924    1.17300   1.00
H3       1.04247    0.69820    1.18647   1.00
C4       0.99937    1.00045    0.77083   1.00
C4       1.00063    0.99955    0.72917   1.00
C3       0.96369    1.00280    0.79154   1.00
C3       0.97316    0.97838    0.70679   1.00
C3       1.03381    0.99807    0.79357   1.00
C3       1.02912    1.02081    0.70813   1.00
C2       0.99697    1.00033    0.85513   1.00
C2       1.00272    0.99962    0.64486   1.00
C3       0.96260    1.00278    0.83285   1.00
C3       0.97429    0.97841    0.66551   1.00
C3       1.03255    0.99803    0.83486   1.00
C3a      1.03036    1.02092    0.66672   1.00
H1       0.93642    1.00503    0.77575   1.00
H1       0.95089    0.96125    0.72125   1.00
H1       0.93473    1.00470    0.84760   1.00
H1       0.95284    0.96167    0.64944   1.00
H1       1.05952    0.99596    0.85118   1.00
C5       1.06132    1.04438    0.64620   1.00
H1       1.05064    1.03780    0.72378   1.00
H1       1.06193    0.99542    0.77941   1.00
H2       1.05903    1.04105    0.61401   1.00
H2       1.05669    1.07576    0.65295   1.00
N1       1.10023    1.03207    0.65875   1.00
C6       1.11601    0.99647    0.65356   1.00
C6       1.12693    1.05429    0.67712   1.00
C6       1.15317    0.99580    0.66898   1.00
C6       1.16012    1.03258    0.68396   1.00
H3       1.10136    0.97223    0.63951   1.00
H3       1.12270    1.08454    0.68516   1.00
H3       1.17300    0.97126    0.66924   1.00
H3       1.18647    1.04247    0.69820   1.00
C4       0.49937    0.49955    1.22917   1.00
C4       0.50063    0.50045    1.27083   1.00
C3       0.46369    0.49720    1.20846   1.00
C3       0.47316    0.52162    1.29321   1.00
C3       0.53381    0.50193    1.20643   1.00
C3       0.52912    0.47919    1.29187   1.00
C2       0.49697    0.49967    1.14487   1.00
C2       0.50272    0.50038    1.35514   1.00
C3       0.46260    0.49722    1.16715   1.00
C3       0.47429    0.52159    1.33449   1.00
C3       0.53255    0.50197    1.16514   1.00
C3a      0.53036    0.47908    1.33328   1.00
H1       0.43642    0.49497    1.22425   1.00
H1       0.45089    0.53875    1.27875   1.00
H1       0.43473    0.49530    1.15240   1.00
H1       0.45284    0.53833    1.35056   1.00
H1       0.55952    0.50404    1.14882   1.00
C5       0.56132    0.45562    1.35380   1.00
H1       0.55064    0.46220    1.27622   1.00
H1       0.56193    0.50458    1.22059   1.00
H2       0.55903    0.45895    1.38599   1.00
H2       0.55669    0.42424    1.34705   1.00
N1       0.60023    0.46793    1.34125   1.00
C6       0.61601    0.50353    1.34644   1.00
C6       0.62693    0.44571    1.32288   1.00
C6       0.65317    0.50420    1.33102   1.00
C6       0.66012    0.46742    1.31604   1.00
H3       0.60136    0.52777    1.36049   1.00
H3       0.62270    0.41546    1.31484   1.00
H3       0.67300    0.52874    1.33076   1.00
H3       0.68647    0.45753    1.30180   1.00
C4       0.49955    0.72917    0.99937   1.00
C4       0.50045    0.77083    1.00063   1.00
C3       0.49720    0.70846    0.96369   1.00
C3       0.52162    0.79321    0.97316   1.00
C3       0.50193    0.70643    1.03381   1.00
C3       0.47919    0.79187    1.02912   1.00
C2       0.49967    0.64487    0.99697   1.00
C2       0.50038    0.85514    1.00272   1.00
C3       0.49722    0.66715    0.96260   1.00
C3       0.52159    0.83449    0.97429   1.00
C3       0.50197    0.66514    1.03255   1.00
C3a      0.47908    0.83328    1.03036   1.00
H1       0.49497    0.72425    0.93642   1.00
H1       0.53875    0.77875    0.95089   1.00
H1       0.49530    0.65240    0.93473   1.00
H1       0.53833    0.85056    0.95284   1.00
H1       0.50404    0.64882    1.05952   1.00
C5       0.45562    0.85380    1.06132   1.00
H1       0.46220    0.77622    1.05064   1.00
H1       0.50458    0.72059    1.06193   1.00
H2       0.45895    0.88599    1.05903   1.00
H2       0.42424    0.84705    1.05669   1.00
N1       0.46793    0.84125    1.10023   1.00
C6       0.50353    0.84644    1.11601   1.00
C6       0.44571    0.82288    1.12693   1.00
C6       0.50420    0.83102    1.15317   1.00
C6       0.46742    0.81604    1.16012   1.00
H3       0.52777    0.86049    1.10136   1.00
H3       0.41546    0.81484    1.12270   1.00
H3       0.52874    0.83076    1.17300   1.00
H3       0.45753    0.80180    1.18647   1.00
C4       0.27083    0.49937    1.00045   1.00
C4       0.22917    0.50063    0.99955   1.00
C3       0.29154    0.46369    1.00280   1.00
C3       0.20679    0.47316    0.97838   1.00
C3       0.29357    0.53381    0.99807   1.00
C3       0.20813    0.52912    1.02081   1.00
C2       0.35513    0.49697    1.00033   1.00
C2       0.14486    0.50272    0.99962   1.00
C3       0.33285    0.46260    1.00278   1.00
C3       0.16551    0.47429    0.97841   1.00
C3       0.33486    0.53255    0.99803   1.00
C3a      0.16672    0.53036    1.02092   1.00
H1       0.27575    0.43642    1.00503   1.00
H1       0.22125    0.45089    0.96125   1.00
H1       0.34760    0.43473    1.00470   1.00
H1       0.14944    0.45284    0.96167   1.00
H1       0.35118    0.55952    0.99596   1.00
C5       0.14620    0.56132    1.04438   1.00
H1       0.22378    0.55064    1.03780   1.00
H1       0.27941    0.56193    0.99542   1.00
H2       0.11401    0.55903    1.04105   1.00
H2       0.15295    0.55669    1.07576   1.00
N1       0.15875    0.60023    1.03207   1.00
C6       0.15356    0.61601    0.99647   1.00
C6       0.17712    0.62693    1.05429   1.00
C6       0.16898    0.65317    0.99580   1.00
C6       0.18396    0.66012    1.03258   1.00
H3       0.13951    0.60136    0.97223   1.00
H3       0.18516    0.62270    1.08454   1.00
H3       0.16924    0.67300    0.97126   1.00
H3       0.19820    0.68647    1.04247   1.00
C4       0.72917    0.49937    0.99955   1.00
C4       0.77083    0.50063    1.00045   1.00
C3       0.70846    0.46369    0.99720   1.00
C3       0.79321    0.47316    1.02162   1.00
C3       0.70643    0.53381    1.00193   1.00
C3       0.79187    0.52912    0.97919   1.00
C2       0.64487    0.49697    0.99967   1.00
C2       0.85514    0.50272    1.00038   1.00
C3       0.66715    0.46260    0.99722   1.00
C3       0.83449    0.47429    1.02159   1.00
C3       0.66514    0.53255    1.00197   1.00
C3a      0.83328    0.53036    0.97908   1.00
H1       0.72425    0.43642    0.99497   1.00
H1       0.77875    0.45089    1.03875   1.00
H1       0.65240    0.43473    0.99530   1.00
H1       0.85056    0.45284    1.03833   1.00
H1       0.64882    0.55952    1.00404   1.00
C5       0.85380    0.56132    0.95562   1.00
H1       0.77622    0.55064    0.96220   1.00
H1       0.72059    0.56193    1.00458   1.00
H2       0.88599    0.55903    0.95895   1.00
H2       0.84705    0.55669    0.92424   1.00
N1       0.84125    0.60023    0.96793   1.00
C6       0.84644    0.61601    1.00353   1.00
C6       0.82288    0.62693    0.94571   1.00
C6       0.83102    0.65317    1.00420   1.00
C6       0.81604    0.66012    0.96742   1.00
H3       0.86049    0.60136    1.02777   1.00
H3       0.81484    0.62270    0.91546   1.00
H3       0.83076    0.67300    1.02874   1.00
H3       0.80180    0.68647    0.95753   1.00
C4       0.50045    0.27083    0.99937   1.00
C4       0.49955    0.22917    1.00063   1.00
C3       0.50280    0.29154    0.96369   1.00
C3       0.47838    0.20679    0.97316   1.00
C3       0.49807    0.29357    1.03381   1.00
C3       0.52081    0.20813    1.02912   1.00
C2       0.50033    0.35513    0.99697   1.00
C2       0.49962    0.14486    1.00272   1.00
C3       0.50278    0.33285    0.96260   1.00
C3       0.47841    0.16551    0.97429   1.00
C3       0.49803    0.33486    1.03255   1.00
C3a      0.52092    0.16672    1.03036   1.00
H1       0.50503    0.27575    0.93642   1.00
H1       0.46125    0.22125    0.95089   1.00
H1       0.50470    0.34760    0.93473   1.00
H1       0.46167    0.14944    0.95284   1.00
H1       0.49596    0.35118    1.05952   1.00
C5       0.54438    0.14620    1.06132   1.00
H1       0.53780    0.22378    1.05064   1.00
H1       0.49542    0.27941    1.06193   1.00
H2       0.54105    0.11401    1.05903   1.00
H2       0.57576    0.15295    1.05669   1.00
N1       0.53207    0.15875    1.10023   1.00
C6       0.49647    0.15356    1.11601   1.00
C6       0.55429    0.17712    1.12693   1.00
C6       0.49580    0.16898    1.15317   1.00
C6       0.53258    0.18396    1.16012   1.00
H3       0.47223    0.13951    1.10136   1.00
H3       0.58454    0.18516    1.12270   1.00
H3       0.47126    0.16924    1.17300   1.00
H3       0.54247    0.19820    1.18647   1.00
C4       0.49937    0.50045    0.77083   1.00
C4       0.50063    0.49955    0.72917   1.00
C3       0.46369    0.50280    0.79154   1.00
C3       0.47316    0.47838    0.70679   1.00
C3       0.53381    0.49807    0.79357   1.00
C3       0.52912    0.52081    0.70813   1.00
C2       0.49697    0.50033    0.85513   1.00
C2       0.50272    0.49962    0.64486   1.00
C3       0.46260    0.50278    0.83285   1.00
C3       0.47429    0.47841    0.66551   1.00
C3       0.53255    0.49803    0.83486   1.00
C3a      0.53036    0.52092    0.66672   1.00
H1       0.43642    0.50503    0.77575   1.00
H1       0.45089    0.46125    0.72125   1.00
H1       0.43473    0.50470    0.84760   1.00
H1       0.45284    0.46167    0.64944   1.00
H1       0.55952    0.49596    0.85118   1.00
C5       0.56132    0.54438    0.64620   1.00
H1       0.55064    0.53780    0.72378   1.00
H1       0.56193    0.49542    0.77941   1.00
H2       0.55903    0.54105    0.61401   1.00
H2       0.55669    0.57576    0.65295   1.00
N1       0.60023    0.53207    0.65875   1.00
C6       0.61601    0.49647    0.65356   1.00
C6       0.62693    0.55429    0.67712   1.00
C6       0.65317    0.49580    0.66898   1.00
C6       0.66012    0.53258    0.68396   1.00
H3       0.60136    0.47223    0.63951   1.00
H3       0.62270    0.58454    0.68516   1.00
H3       0.67300    0.47126    0.66924   1.00
H3       0.68647    0.54247    0.69820   1.00
C4       0.49937    0.99955    0.72917   1.00
C4       0.50063    1.00045    0.77083   1.00
C3       0.46369    0.99720    0.70846   1.00
C3       0.47316    1.02162    0.79321   1.00
C3       0.53381    1.00193    0.70643   1.00
C3       0.52912    0.97919    0.79187   1.00
C2       0.49697    0.99967    0.64487   1.00
C2       0.50272    1.00038    0.85514   1.00
C3       0.46260    0.99722    0.66715   1.00
C3       0.47429    1.02159    0.83449   1.00
C3       0.53255    1.00197    0.66514   1.00
C3a      0.53036    0.97908    0.83328   1.00
H1       0.43642    0.99497    0.72425   1.00
H1       0.45089    1.03875    0.77875   1.00
H1       0.43473    0.99530    0.65240   1.00
H1       0.45284    1.03833    0.85056   1.00
H1       0.55952    1.00404    0.64882   1.00
C5       0.56132    0.95562    0.85380   1.00
H1       0.55064    0.96220    0.77622   1.00
H1       0.56193    1.00458    0.72059   1.00
H2       0.55903    0.95895    0.88599   1.00
H2       0.55669    0.92424    0.84705   1.00
N1       0.60023    0.96793    0.84125   1.00
C6       0.61601    1.00353    0.84644   1.00
C6       0.62693    0.94571    0.82288   1.00
C6       0.65317    1.00420    0.83102   1.00
C6       0.66012    0.96742    0.81604   1.00
H3       0.60136    1.02777    0.86049   1.00
H3       0.62270    0.91546    0.81484   1.00
H3       0.67300    1.02874    0.83076   1.00
H3       0.68647    0.95753    0.80180   1.00
C4       0.49955    1.22917    0.49937   1.00
C4       0.50045    1.27083    0.50063   1.00
C3       0.49720    1.20846    0.46369   1.00
C3       0.52162    1.29321    0.47316   1.00
C3       0.50193    1.20643    0.53381   1.00
C3       0.47919    1.29187    0.52912   1.00
C2       0.49967    1.14487    0.49697   1.00
C2       0.50038    1.35514    0.50272   1.00
C3       0.49722    1.16715    0.46260   1.00
C3       0.52159    1.33449    0.47429   1.00
C3       0.50197    1.16514    0.53255   1.00
C3a      0.47908    1.33328    0.53036   1.00
H1       0.49497    1.22425    0.43642   1.00
H1       0.53875    1.27875    0.45089   1.00
H1       0.49530    1.15240    0.43473   1.00
H1       0.53833    1.35056    0.45284   1.00
H1       0.50404    1.14882    0.55952   1.00
C5       0.45562    1.35380    0.56132   1.00
H1       0.46220    1.27622    0.55064   1.00
H1       0.50458    1.22059    0.56193   1.00
H2       0.45895    1.38599    0.55903   1.00
H2       0.42424    1.34705    0.55669   1.00
N1       0.46793    1.34125    0.60023   1.00
C6       0.50353    1.34644    0.61601   1.00
C6       0.44571    1.32288    0.62693   1.00
C6       0.50420    1.33102    0.65317   1.00
C6       0.46742    1.31604    0.66012   1.00
H3       0.52777    1.36049    0.60136   1.00
H3       0.41546    1.31484    0.62270   1.00
H3       0.52874    1.33076    0.67300   1.00
H3       0.45753    1.30180    0.68647   1.00
C4       0.27083    0.99937    0.50045   1.00
C4       0.22917    1.00063    0.49955   1.00
C3       0.29154    0.96369    0.50280   1.00
C3       0.20679    0.97316    0.47838   1.00
C3       0.29357    1.03381    0.49807   1.00
C3       0.20813    1.02912    0.52081   1.00
C2       0.35513    0.99697    0.50033   1.00
C2       0.14486    1.00272    0.49962   1.00
C3       0.33285    0.96260    0.50278   1.00
C3       0.16551    0.97429    0.47841   1.00
C3       0.33486    1.03255    0.49803   1.00
C3a      0.16672    1.03036    0.52092   1.00
H1       0.27575    0.93642    0.50503   1.00
H1       0.22125    0.95089    0.46125   1.00
H1       0.34760    0.93473    0.50470   1.00
H1       0.14944    0.95284    0.46167   1.00
H1       0.35118    1.05952    0.49596   1.00
C5       0.14620    1.06132    0.54438   1.00
H1       0.22378    1.05064    0.53780   1.00
H1       0.27941    1.06193    0.49542   1.00
H2       0.11401    1.05903    0.54105   1.00
H2       0.15295    1.05669    0.57576   1.00
N1       0.15875    1.10023    0.53207   1.00
C6       0.15356    1.11601    0.49647   1.00
C6       0.17712    1.12693    0.55429   1.00
C6       0.16898    1.15317    0.49580   1.00
C6       0.18396    1.16012    0.53258   1.00
H3       0.13951    1.10136    0.47223   1.00
H3       0.18516    1.12270    0.58454   1.00
H3       0.16924    1.17300    0.47126   1.00
H3       0.19820    1.18647    0.54247   1.00
C4       0.72917    0.99937    0.49955   1.00
C4       0.77083    1.00063    0.50045   1.00
C3       0.70846    0.96369    0.49720   1.00
C3       0.79321    0.97316    0.52162   1.00
C3       0.70643    1.03381    0.50193   1.00
C3       0.79187    1.02912    0.47919   1.00
C2       0.64487    0.99697    0.49967   1.00
C2       0.85514    1.00272    0.50038   1.00
C3       0.66715    0.96260    0.49722   1.00
C3       0.83449    0.97429    0.52159   1.00
C3       0.66514    1.03255    0.50197   1.00
C3a      0.83328    1.03036    0.47908   1.00
H1       0.72425    0.93642    0.49497   1.00
H1       0.77875    0.95089    0.53875   1.00
H1       0.65240    0.93473    0.49530   1.00
H1       0.85056    0.95284    0.53833   1.00
H1       0.64882    1.05952    0.50404   1.00
C5       0.85380    1.06132    0.45562   1.00
H1       0.77622    1.05064    0.46220   1.00
H1       0.72059    1.06193    0.50458   1.00
H2       0.88599    1.05903    0.45895   1.00
H2       0.84705    1.05669    0.42424   1.00
N1       0.84125    1.10023    0.46793   1.00
C6       0.84644    1.11601    0.50353   1.00
C6       0.82288    1.12693    0.44571   1.00
C6       0.83102    1.15317    0.50420   1.00
C6       0.81604    1.16012    0.46742   1.00
H3       0.86049    1.10136    0.52777   1.00
H3       0.81484    1.12270    0.41546   1.00
H3       0.83076    1.17300    0.52874   1.00
H3       0.80180    1.18647    0.45753   1.00
C4       0.50045    0.77083    0.49937   1.00
C4       0.49955    0.72917    0.50063   1.00
C3       0.50280    0.79154    0.46369   1.00
C3       0.47838    0.70679    0.47316   1.00
C3       0.49807    0.79357    0.53381   1.00
C3       0.52081    0.70813    0.52912   1.00
C2       0.50033    0.85513    0.49697   1.00
C2       0.49962    0.64486    0.50272   1.00
C3       0.50278    0.83285    0.46260   1.00
C3       0.47841    0.66551    0.47429   1.00
C3       0.49803    0.83486    0.53255   1.00
C3a      0.52092    0.66672    0.53036   1.00
H1       0.50503    0.77575    0.43642   1.00
H1       0.46125    0.72125    0.45089   1.00
H1       0.50470    0.84760    0.43473   1.00
H1       0.46167    0.64944    0.45284   1.00
H1       0.49596    0.85118    0.55952   1.00
C5       0.54438    0.64620    0.56132   1.00
H1       0.53780    0.72378    0.55064   1.00
H1       0.49542    0.77941    0.56193   1.00
H2       0.54105    0.61401    0.55903   1.00
H2       0.57576    0.65295    0.55669   1.00
N1       0.53207    0.65875    0.60023   1.00
C6       0.49647    0.65356    0.61601   1.00
C6       0.55429    0.67712    0.62693   1.00
C6       0.49580    0.66898    0.65317   1.00
C6       0.53258    0.68396    0.66012   1.00
H3       0.47223    0.63951    0.60136   1.00
H3       0.58454    0.68516    0.62270   1.00
H3       0.47126    0.66924    0.67300   1.00
H3       0.54247    0.69820    0.68647   1.00
C4       0.49937    1.00045    0.27083   1.00
C4       0.50063    0.99955    0.22917   1.00
C3       0.46369    1.00280    0.29154   1.00
C3       0.47316    0.97838    0.20679   1.00
C3       0.53381    0.99807    0.29357   1.00
C3       0.52912    1.02081    0.20813   1.00
C2       0.49697    1.00033    0.35513   1.00
C2       0.50272    0.99962    0.14486   1.00
C3       0.46260    1.00278    0.33285   1.00
C3       0.47429    0.97841    0.16551   1.00
C3       0.53255    0.99803    0.33486   1.00
C3a      0.53036    1.02092    0.16672   1.00
H1       0.43642    1.00503    0.27575   1.00
H1       0.45089    0.96125    0.22125   1.00
H1       0.43473    1.00470    0.34760   1.00
H1       0.45284    0.96167    0.14944   1.00
H1       0.55952    0.99596    0.35118   1.00
C5       0.56132    1.04438    0.14620   1.00
H1       0.55064    1.03780    0.22378   1.00
H1       0.56193    0.99542    0.27941   1.00
H2       0.55903    1.04105    0.11401   1.00
H2       0.55669    1.07576    0.15295   1.00
N1       0.60023    1.03207    0.15875   1.00
C6       0.61601    0.99647    0.15356   1.00
C6       0.62693    1.05429    0.17712   1.00
C6       0.65317    0.99580    0.16898   1.00
C6       0.66012    1.03258    0.18396   1.00
H3       0.60136    0.97223    0.13951   1.00
H3       0.62270    1.08454    0.18516   1.00
H3       0.67300    0.97126    0.16924   1.00
H3       0.68647    1.04247    0.19820   1.00
C4       0.99937    0.49955    0.72917   1.00
C4       1.00063    0.50045    0.77083   1.00
C3       0.96369    0.49720    0.70846   1.00
C3       0.97316    0.52162    0.79321   1.00
C3       1.03381    0.50193    0.70643   1.00
C3       1.02912    0.47919    0.79187   1.00
C2       0.99697    0.49967    0.64487   1.00
C2       1.00272    0.50038    0.85514   1.00
C3       0.96260    0.49722    0.66715   1.00
C3       0.97429    0.52159    0.83449   1.00
C3       1.03255    0.50197    0.66514   1.00
C3a      1.03036    0.47908    0.83328   1.00
H1       0.93642    0.49497    0.72425   1.00
H1       0.95089    0.53875    0.77875   1.00
H1       0.93473    0.49530    0.65240   1.00
H1       0.95284    0.53833    0.85056   1.00
H1       1.05952    0.50404    0.64882   1.00
C5       1.06132    0.45562    0.85380   1.00
H1       1.05064    0.46220    0.77622   1.00
H1       1.06193    0.50458    0.72059   1.00
H2       1.05903    0.45895    0.88599   1.00
H2       1.05669    0.42424    0.84705   1.00
N1       1.10023    0.46793    0.84125   1.00
C6       1.11601    0.50353    0.84644   1.00
C6       1.12693    0.44571    0.82288   1.00
C6       1.15317    0.50420    0.83102   1.00
C6       1.16012    0.46742    0.81604   1.00
H3       1.10136    0.52777    0.86049   1.00
H3       1.12270    0.41546    0.81484   1.00
H3       1.17300    0.52874    0.83076   1.00
H3       1.18647    0.45753    0.80180   1.00
C4       0.99955    0.72917    0.49937   1.00
C4       1.00045    0.77083    0.50063   1.00
C3       0.99720    0.70846    0.46369   1.00
C3       1.02162    0.79321    0.47316   1.00
C3       1.00193    0.70643    0.53381   1.00
C3       0.97919    0.79187    0.52912   1.00
C2       0.99967    0.64487    0.49697   1.00
C2       1.00038    0.85514    0.50272   1.00
C3       0.99722    0.66715    0.46260   1.00
C3       1.02159    0.83449    0.47429   1.00
C3       1.00197    0.66514    0.53255   1.00
C3a      0.97908    0.83328    0.53036   1.00
H1       0.99497    0.72425    0.43642   1.00
H1       1.03875    0.77875    0.45089   1.00
H1       0.99530    0.65240    0.43473   1.00
H1       1.03833    0.85056    0.45284   1.00
H1       1.00404    0.64882    0.55952   1.00
C5       0.95562    0.85380    0.56132   1.00
H1       0.96220    0.77622    0.55064   1.00
H1       1.00458    0.72059    0.56193   1.00
H2       0.95895    0.88599    0.55903   1.00
H2       0.92424    0.84705    0.55669   1.00
N1       0.96793    0.84125    0.60023   1.00
C6       1.00353    0.84644    0.61601   1.00
C6       0.94571    0.82288    0.62693   1.00
C6       1.00420    0.83102    0.65317   1.00
C6       0.96742    0.81604    0.66012   1.00
H3       1.02777    0.86049    0.60136   1.00
H3       0.91546    0.81484    0.62270   1.00
H3       1.02874    0.83076    0.67300   1.00
H3       0.95753    0.80180    0.68647   1.00
C4       0.77083    0.49937    0.50045   1.00
C4       0.72917    0.50063    0.49955   1.00
C3       0.79154    0.46369    0.50280   1.00
C3       0.70679    0.47316    0.47838   1.00
C3       0.79357    0.53381    0.49807   1.00
C3       0.70813    0.52912    0.52081   1.00
C2       0.85513    0.49697    0.50033   1.00
C2       0.64486    0.50272    0.49962   1.00
C3       0.83285    0.46260    0.50278   1.00
C3       0.66551    0.47429    0.47841   1.00
C3       0.83486    0.53255    0.49803   1.00
C3a      0.66672    0.53036    0.52092   1.00
H1       0.77575    0.43642    0.50503   1.00
H1       0.72125    0.45089    0.46125   1.00
H1       0.84760    0.43473    0.50470   1.00
H1       0.64944    0.45284    0.46167   1.00
H1       0.85118    0.55952    0.49596   1.00
C5       0.64620    0.56132    0.54438   1.00
H1       0.72378    0.55064    0.53780   1.00
H1       0.77941    0.56193    0.49542   1.00
H2       0.61401    0.55903    0.54105   1.00
H2       0.65295    0.55669    0.57576   1.00
N1       0.65875    0.60023    0.53207   1.00
C6       0.65356    0.61601    0.49647   1.00
C6       0.67712    0.62693    0.55429   1.00
C6       0.66898    0.65317    0.49580   1.00
C6       0.68396    0.66012    0.53258   1.00
H3       0.63951    0.60136    0.47223   1.00
H3       0.68516    0.62270    0.58454   1.00
H3       0.66924    0.67300    0.47126   1.00
H3       0.69820    0.68647    0.54247   1.00
C4       1.22917    0.49937    0.49955   1.00
C4       1.27083    0.50063    0.50045   1.00
C3       1.20846    0.46369    0.49720   1.00
C3       1.29321    0.47316    0.52162   1.00
C3       1.20643    0.53381    0.50193   1.00
C3       1.29187    0.52912    0.47919   1.00
C2       1.14487    0.49697    0.49967   1.00
C2       1.35514    0.50272    0.50038   1.00
C3       1.16715    0.46260    0.49722   1.00
C3       1.33449    0.47429    0.52159   1.00
C3       1.16514    0.53255    0.50197   1.00
C3a      1.33328    0.53036    0.47908   1.00
H1       1.22425    0.43642    0.49497   1.00
H1       1.27875    0.45089    0.53875   1.00
H1       1.15240    0.43473    0.49530   1.00
H1       1.35056    0.45284    0.53833   1.00
H1       1.14882    0.55952    0.50404   1.00
C5       1.35380    0.56132    0.45562   1.00
H1       1.27622    0.55064    0.46220   1.00
H1       1.22059    0.56193    0.50458   1.00
H2       1.38599    0.55903    0.45895   1.00
H2       1.34705    0.55669    0.42424   1.00
N1       1.34125    0.60023    0.46793   1.00
C6       1.34644    0.61601    0.50353   1.00
C6       1.32288    0.62693    0.44571   1.00
C6       1.33102    0.65317    0.50420   1.00
C6       1.31604    0.66012    0.46742   1.00
H3       1.36049    0.60136    0.52777   1.00
H3       1.31484    0.62270    0.41546   1.00
H3       1.33076    0.67300    0.52874   1.00
H3       1.30180    0.68647    0.45753   1.00
C4       1.00045    0.27083    0.49937   1.00
C4       0.99955    0.22917    0.50063   1.00
C3       1.00280    0.29154    0.46369   1.00
C3       0.97838    0.20679    0.47316   1.00
C3       0.99807    0.29357    0.53381   1.00
C3       1.02081    0.20813    0.52912   1.00
C2       1.00033    0.35513    0.49697   1.00
C2       0.99962    0.14486    0.50272   1.00
C3       1.00278    0.33285    0.46260   1.00
C3       0.97841    0.16551    0.47429   1.00
C3       0.99803    0.33486    0.53255   1.00
C3a      1.02092    0.16672    0.53036   1.00
H1       1.00503    0.27575    0.43642   1.00
H1       0.96125    0.22125    0.45089   1.00
H1       1.00470    0.34760    0.43473   1.00
H1       0.96167    0.14944    0.45284   1.00
H1       0.99596    0.35118    0.55952   1.00
C5       1.04438    0.14620    0.56132   1.00
H1       1.03780    0.22378    0.55064   1.00
H1       0.99542    0.27941    0.56193   1.00
H2       1.04105    0.11401    0.55903   1.00
H2       1.07576    0.15295    0.55669   1.00
N1       1.03207    0.15875    0.60023   1.00
C6       0.99647    0.15356    0.61601   1.00
C6       1.05429    0.17712    0.62693   1.00
C6       0.99580    0.16898    0.65317   1.00
C6       1.03258    0.18396    0.66012   1.00
H3       0.97223    0.13951    0.60136   1.00
H3       1.08454    0.18516    0.62270   1.00
H3       0.97126    0.16924    0.67300   1.00
H3       1.04247    0.19820    0.68647   1.00
C4       0.99937    0.50045    0.27083   1.00
C4       1.00063    0.49955    0.22917   1.00
C3       0.96369    0.50280    0.29154   1.00
C3       0.97316    0.47838    0.20679   1.00
C3       1.03381    0.49807    0.29357   1.00
C3       1.02912    0.52081    0.20813   1.00
C2       0.99697    0.50033    0.35513   1.00
C2       1.00272    0.49962    0.14486   1.00
C3       0.96260    0.50278    0.33285   1.00
C3       0.97429    0.47841    0.16551   1.00
C3       1.03255    0.49803    0.33486   1.00
C3a      1.03036    0.52092    0.16672   1.00
H1       0.93642    0.50503    0.27575   1.00
H1       0.95089    0.46125    0.22125   1.00
H1       0.93473    0.50470    0.34760   1.00
H1       0.95284    0.46167    0.14944   1.00
H1       1.05952    0.49596    0.35118   1.00
C5       1.06132    0.54438    0.14620   1.00
H1       1.05064    0.53780    0.22378   1.00
H1       1.06193    0.49542    0.27941   1.00
H2       1.05903    0.54105    0.11401   1.00
H2       1.05669    0.57576    0.15295   1.00
N1       1.10023    0.53207    0.15875   1.00
C6       1.11601    0.49647    0.15356   1.00
C6       1.12693    0.55429    0.17712   1.00
C6       1.15317    0.49580    0.16898   1.00
C6       1.16012    0.53258    0.18396   1.00
H3       1.10136    0.47223    0.13951   1.00
H3       1.12270    0.58454    0.18516   1.00
H3       1.17300    0.47126    0.16924   1.00
H3       1.18647    0.54247    0.19820   1.00
