data_IRMOF10_SG202_interpen_Ligand4lp_label_s.

_audit_creation_method             'generated by an auxiliary program of Tobunporous'

_symmetry_space_group_name_H-M     'P 1'
_symmetry_Int_Tables_number        1
_symmetry_cell_setting             triclinic

_cell_length_a                    34.2800
_cell_length_b                    34.2800
_cell_length_c                    34.2800
_cell_angle_alpha                 90.0000
_cell_angle_beta                  90.0000
_cell_angle_gamma                 90.0000

loop_
_atom_site_label
_atom_site_fract_x
_atom_site_fract_y
_atom_site_fract_z
_atom_site_occupancy
O1       0.75000    0.75000    0.75000   1.00
Zn1      0.71720    0.78280    0.78280   1.00
Zn1      0.78280    0.71720    0.78280   1.00
Zn1      0.78280    0.78280    0.71720   1.00
Zn1      0.71720    0.71720    0.71720   1.00
O2       0.72650    0.77350    0.83820   1.00
O2       0.72650    0.83820    0.77350   1.00
O2       0.66180    0.77350    0.77350   1.00
O2       0.77350    0.72650    0.83820   1.00
O2       0.83820    0.72650    0.77350   1.00
O2       0.77350    0.66180    0.77350   1.00
O2       0.77350    0.83820    0.72650   1.00
O2       0.83820    0.77350    0.72650   1.00
O2       0.77350    0.77350    0.66180   1.00
O2       0.66180    0.72650    0.72650   1.00
O2       0.72650    0.66180    0.72650   1.00
O2       0.72650    0.72650    0.66180   1.00
C1       0.75000    0.75000    0.85520   1.00
C1       0.75000    0.85520    0.75000   1.00
C1       0.64480    0.75000    0.75000   1.00
C1       0.85520    0.75000    0.75000   1.00
C1       0.75000    0.64480    0.75000   1.00
C1       0.75000    0.75000    0.64480   1.00
O1       0.25000    0.25000    0.75000   1.00
Zn1      0.21720    0.28280    0.78280   1.00
Zn1      0.28280    0.21720    0.78280   1.00
Zn1      0.28280    0.28280    0.71720   1.00
Zn1      0.21720    0.21720    0.71720   1.00
O2       0.22650    0.27350    0.83820   1.00
O2       0.22650    0.33820    0.77350   1.00
O2       0.16180    0.27350    0.77350   1.00
O2       0.27350    0.22650    0.83820   1.00
O2       0.33820    0.22650    0.77350   1.00
O2       0.27350    0.16180    0.77350   1.00
O2       0.27350    0.33820    0.72650   1.00
O2       0.33820    0.27350    0.72650   1.00
O2       0.27350    0.27350    0.66180   1.00
O2       0.16180    0.22650    0.72650   1.00
O2       0.22650    0.16180    0.72650   1.00
O2       0.22650    0.22650    0.66180   1.00
C1       0.25000    0.25000    0.85520   1.00
C1       0.25000    0.35520    0.75000   1.00
C1       0.14480    0.25000    0.75000   1.00
C1       0.35520    0.25000    0.75000   1.00
C1       0.25000    0.14480    0.75000   1.00
C1       0.25000    0.25000    0.64480   1.00
O1       0.25000    0.75000    0.25000   1.00
Zn1      0.21720    0.78280    0.28280   1.00
Zn1      0.28280    0.71720    0.28280   1.00
Zn1      0.28280    0.78280    0.21720   1.00
Zn1      0.21720    0.71720    0.21720   1.00
O2       0.22650    0.77350    0.33820   1.00
O2       0.22650    0.83820    0.27350   1.00
O2       0.16180    0.77350    0.27350   1.00
O2       0.27350    0.72650    0.33820   1.00
O2       0.33820    0.72650    0.27350   1.00
O2       0.27350    0.66180    0.27350   1.00
O2       0.27350    0.83820    0.22650   1.00
O2       0.33820    0.77350    0.22650   1.00
O2       0.27350    0.77350    0.16180   1.00
O2       0.16180    0.72650    0.22650   1.00
O2       0.22650    0.66180    0.22650   1.00
O2       0.22650    0.72650    0.16180   1.00
C1       0.25000    0.75000    0.35520   1.00
C1       0.25000    0.85520    0.25000   1.00
C1       0.14480    0.75000    0.25000   1.00
C1       0.35520    0.75000    0.25000   1.00
C1       0.25000    0.64480    0.25000   1.00
C1       0.25000    0.75000    0.14480   1.00
O1       0.75000    0.25000    0.25000   1.00
Zn1      0.71720    0.28280    0.28280   1.00
Zn1      0.78280    0.21720    0.28280   1.00
Zn1      0.78280    0.28280    0.21720   1.00
Zn1      0.71720    0.21720    0.21720   1.00
O2       0.72650    0.27350    0.33820   1.00
O2       0.72650    0.33820    0.27350   1.00
O2       0.66180    0.27350    0.27350   1.00
O2       0.77350    0.22650    0.33820   1.00
O2       0.83820    0.22650    0.27350   1.00
O2       0.77350    0.16180    0.27350   1.00
O2       0.77350    0.33820    0.22650   1.00
O2       0.83820    0.27350    0.22650   1.00
O2       0.77350    0.27350    0.16180   1.00
O2       0.66180    0.22650    0.22650   1.00
O2       0.72650    0.16180    0.22650   1.00
O2       0.72650    0.22650    0.16180   1.00
C1       0.75000    0.25000    0.35520   1.00
C1       0.75000    0.35520    0.25000   1.00
C1       0.64480    0.25000    0.25000   1.00
C1       0.85520    0.25000    0.25000   1.00
C1       0.75000    0.14480    0.25000   1.00
C1       0.75000    0.25000    0.14480   1.00
O1       0.25000    0.25000    0.25000   1.00
Zn1      0.28280    0.21720    0.21720   1.00
Zn1      0.21720    0.28280    0.21720   1.00
Zn1      0.21720    0.21720    0.28280   1.00
Zn1      0.28280    0.28280    0.28280   1.00
O2       0.27350    0.22650    0.16180   1.00
O2       0.27350    0.16180    0.22650   1.00
O2       0.33820    0.22650    0.22650   1.00
O2       0.22650    0.27350    0.16180   1.00
O2       0.16180    0.27350    0.22650   1.00
O2       0.22650    0.33820    0.22650   1.00
O2       0.22650    0.16180    0.27350   1.00
O2       0.16180    0.22650    0.27350   1.00
O2       0.22650    0.22650    0.33820   1.00
O2       0.33820    0.27350    0.27350   1.00
O2       0.27350    0.33820    0.27350   1.00
O2       0.27350    0.27350    0.33820   1.00
C1       0.25000    0.25000    0.14480   1.00
C1       0.25000    0.14480    0.25000   1.00
C1       0.35520    0.25000    0.25000   1.00
C1       0.14480    0.25000    0.25000   1.00
C1       0.25000    0.35520    0.25000   1.00
C1       0.25000    0.25000    0.35520   1.00
O1       0.75000    0.75000    0.25000   1.00
Zn1      0.78280    0.71720    0.21720   1.00
Zn1      0.71720    0.78280    0.21720   1.00
Zn1      0.71720    0.71720    0.28280   1.00
Zn1      0.78280    0.78280    0.28280   1.00
O2       0.77350    0.72650    0.16180   1.00
O2       0.77350    0.66180    0.22650   1.00
O2       0.83820    0.72650    0.22650   1.00
O2       0.72650    0.77350    0.16180   1.00
O2       0.66180    0.77350    0.22650   1.00
O2       0.72650    0.83820    0.22650   1.00
O2       0.72650    0.66180    0.27350   1.00
O2       0.66180    0.72650    0.27350   1.00
O2       0.72650    0.72650    0.33820   1.00
O2       0.83820    0.77350    0.27350   1.00
O2       0.77350    0.83820    0.27350   1.00
O2       0.77350    0.77350    0.33820   1.00
C1       0.75000    0.75000    0.14480   1.00
C1       0.75000    0.64480    0.25000   1.00
C1       0.85520    0.75000    0.25000   1.00
C1       0.64480    0.75000    0.25000   1.00
C1       0.75000    0.85520    0.25000   1.00
C1       0.75000    0.75000    0.35520   1.00
O1       0.75000    0.25000    0.75000   1.00
Zn1      0.78280    0.21720    0.71720   1.00
Zn1      0.71720    0.28280    0.71720   1.00
Zn1      0.71720    0.21720    0.78280   1.00
Zn1      0.78280    0.28280    0.78280   1.00
O2       0.77350    0.22650    0.66180   1.00
O2       0.77350    0.16180    0.72650   1.00
O2       0.83820    0.22650    0.72650   1.00
O2       0.72650    0.27350    0.66180   1.00
O2       0.66180    0.27350    0.72650   1.00
O2       0.72650    0.33820    0.72650   1.00
O2       0.72650    0.16180    0.77350   1.00
O2       0.66180    0.22650    0.77350   1.00
O2       0.72650    0.22650    0.83820   1.00
O2       0.83820    0.27350    0.77350   1.00
O2       0.77350    0.33820    0.77350   1.00
O2       0.77350    0.27350    0.83820   1.00
C1       0.75000    0.25000    0.64480   1.00
C1       0.75000    0.14480    0.75000   1.00
C1       0.85520    0.25000    0.75000   1.00
C1       0.64480    0.25000    0.75000   1.00
C1       0.75000    0.35520    0.75000   1.00
C1       0.75000    0.25000    0.85520   1.00
O1       0.25000    0.75000    0.75000   1.00
Zn1      0.28280    0.71720    0.71720   1.00
Zn1      0.21720    0.78280    0.71720   1.00
Zn1      0.21720    0.71720    0.78280   1.00
Zn1      0.28280    0.78280    0.78280   1.00
O2       0.27350    0.72650    0.66180   1.00
O2       0.27350    0.66180    0.72650   1.00
O2       0.33820    0.72650    0.72650   1.00
O2       0.22650    0.77350    0.66180   1.00
O2       0.16180    0.77350    0.72650   1.00
O2       0.22650    0.83820    0.72650   1.00
O2       0.22650    0.66180    0.77350   1.00
O2       0.16180    0.72650    0.77350   1.00
O2       0.22650    0.72650    0.83820   1.00
O2       0.33820    0.77350    0.77350   1.00
O2       0.27350    0.83820    0.77350   1.00
O2       0.27350    0.77350    0.83820   1.00
C1       0.25000    0.75000    0.64480   1.00
C1       0.25000    0.64480    0.75000   1.00
C1       0.35520    0.75000    0.75000   1.00
C1       0.14480    0.75000    0.75000   1.00
C1       0.25000    0.85520    0.75000   1.00
C1       0.25000    0.75000    0.85520   1.00
O1       1.00000    1.00000    1.00000   1.00
Zn1      0.96720    1.03280    1.03280   1.00
Zn1      1.03280    0.96720    1.03280   1.00
Zn1      1.03280    1.03280    0.96720   1.00
Zn1      0.96720    0.96720    0.96720   1.00
O2       0.97650    1.02350    1.08820   1.00
O2       0.97650    1.08820    1.02350   1.00
O2       0.91180    1.02350    1.02350   1.00
O2       1.02350    0.97650    1.08820   1.00
O2       1.08820    0.97650    1.02350   1.00
O2       1.02350    0.91180    1.02350   1.00
O2       1.02350    1.08820    0.97650   1.00
O2       1.08820    1.02350    0.97650   1.00
O2       1.02350    1.02350    0.91180   1.00
O2       0.91180    0.97650    0.97650   1.00
O2       0.97650    0.91180    0.97650   1.00
O2       0.97650    0.97650    0.91180   1.00
C1       1.00000    1.00000    1.10520   1.00
C1       1.00000    1.10520    1.00000   1.00
C1       0.89480    1.00000    1.00000   1.00
C1       1.10520    1.00000    1.00000   1.00
C1       1.00000    0.89480    1.00000   1.00
C1       1.00000    1.00000    0.89480   1.00
O1       0.50000    0.50000    1.00000   1.00
Zn1      0.46720    0.53280    1.03280   1.00
Zn1      0.53280    0.46720    1.03280   1.00
Zn1      0.53280    0.53280    0.96720   1.00
Zn1      0.46720    0.46720    0.96720   1.00
O2       0.47650    0.52350    1.08820   1.00
O2       0.47650    0.58820    1.02350   1.00
O2       0.41180    0.52350    1.02350   1.00
O2       0.52350    0.47650    1.08820   1.00
O2       0.58820    0.47650    1.02350   1.00
O2       0.52350    0.41180    1.02350   1.00
O2       0.52350    0.58820    0.97650   1.00
O2       0.58820    0.52350    0.97650   1.00
O2       0.52350    0.52350    0.91180   1.00
O2       0.41180    0.47650    0.97650   1.00
O2       0.47650    0.41180    0.97650   1.00
O2       0.47650    0.47650    0.91180   1.00
C1       0.50000    0.50000    1.10520   1.00
C1       0.50000    0.60520    1.00000   1.00
C1       0.39480    0.50000    1.00000   1.00
C1       0.60520    0.50000    1.00000   1.00
C1       0.50000    0.39480    1.00000   1.00
C1       0.50000    0.50000    0.89480   1.00
O1       0.50000    1.00000    0.50000   1.00
Zn1      0.46720    1.03280    0.53280   1.00
Zn1      0.53280    0.96720    0.53280   1.00
Zn1      0.53280    1.03280    0.46720   1.00
Zn1      0.46720    0.96720    0.46720   1.00
O2       0.47650    1.02350    0.58820   1.00
O2       0.47650    1.08820    0.52350   1.00
O2       0.41180    1.02350    0.52350   1.00
O2       0.52350    0.97650    0.58820   1.00
O2       0.58820    0.97650    0.52350   1.00
O2       0.52350    0.91180    0.52350   1.00
O2       0.52350    1.08820    0.47650   1.00
O2       0.58820    1.02350    0.47650   1.00
O2       0.52350    1.02350    0.41180   1.00
O2       0.41180    0.97650    0.47650   1.00
O2       0.47650    0.91180    0.47650   1.00
O2       0.47650    0.97650    0.41180   1.00
C1       0.50000    1.00000    0.60520   1.00
C1       0.50000    1.10520    0.50000   1.00
C1       0.39480    1.00000    0.50000   1.00
C1       0.60520    1.00000    0.50000   1.00
C1       0.50000    0.89480    0.50000   1.00
C1       0.50000    1.00000    0.39480   1.00
O1       1.00000    0.50000    0.50000   1.00
Zn1      0.96720    0.53280    0.53280   1.00
Zn1      1.03280    0.46720    0.53280   1.00
Zn1      1.03280    0.53280    0.46720   1.00
Zn1      0.96720    0.46720    0.46720   1.00
O2       0.97650    0.52350    0.58820   1.00
O2       0.97650    0.58820    0.52350   1.00
O2       0.91180    0.52350    0.52350   1.00
O2       1.02350    0.47650    0.58820   1.00
O2       1.08820    0.47650    0.52350   1.00
O2       1.02350    0.41180    0.52350   1.00
O2       1.02350    0.58820    0.47650   1.00
O2       1.08820    0.52350    0.47650   1.00
O2       1.02350    0.52350    0.41180   1.00
O2       0.91180    0.47650    0.47650   1.00
O2       0.97650    0.41180    0.47650   1.00
O2       0.97650    0.47650    0.41180   1.00
C1       1.00000    0.50000    0.60520   1.00
C1       1.00000    0.60520    0.50000   1.00
C1       0.89480    0.50000    0.50000   1.00
C1       1.10520    0.50000    0.50000   1.00
C1       1.00000    0.39480    0.50000   1.00
C1       1.00000    0.50000    0.39480   1.00
O1       0.50000    0.50000    0.50000   1.00
Zn1      0.53280    0.46720    0.46720   1.00
Zn1      0.46720    0.53280    0.46720   1.00
Zn1      0.46720    0.46720    0.53280   1.00
Zn1      0.53280    0.53280    0.53280   1.00
O2       0.52350    0.47650    0.41180   1.00
O2       0.52350    0.41180    0.47650   1.00
O2       0.58820    0.47650    0.47650   1.00
O2       0.47650    0.52350    0.41180   1.00
O2       0.41180    0.52350    0.47650   1.00
O2       0.47650    0.58820    0.47650   1.00
O2       0.47650    0.41180    0.52350   1.00
O2       0.41180    0.47650    0.52350   1.00
O2       0.47650    0.47650    0.58820   1.00
O2       0.58820    0.52350    0.52350   1.00
O2       0.52350    0.58820    0.52350   1.00
O2       0.52350    0.52350    0.58820   1.00
C1       0.50000    0.50000    0.39480   1.00
C1       0.50000    0.39480    0.50000   1.00
C1       0.60520    0.50000    0.50000   1.00
C1       0.39480    0.50000    0.50000   1.00
C1       0.50000    0.60520    0.50000   1.00
C1       0.50000    0.50000    0.60520   1.00
O1       1.00000    1.00000    0.50000   1.00
Zn1      1.03280    0.96720    0.46720   1.00
Zn1      0.96720    1.03280    0.46720   1.00
Zn1      0.96720    0.96720    0.53280   1.00
Zn1      1.03280    1.03280    0.53280   1.00
O2       1.02350    0.97650    0.41180   1.00
O2       1.02350    0.91180    0.47650   1.00
O2       1.08820    0.97650    0.47650   1.00
O2       0.97650    1.02350    0.41180   1.00
O2       0.91180    1.02350    0.47650   1.00
O2       0.97650    1.08820    0.47650   1.00
O2       0.97650    0.91180    0.52350   1.00
O2       0.91180    0.97650    0.52350   1.00
O2       0.97650    0.97650    0.58820   1.00
O2       1.08820    1.02350    0.52350   1.00
O2       1.02350    1.08820    0.52350   1.00
O2       1.02350    1.02350    0.58820   1.00
C1       1.00000    1.00000    0.39480   1.00
C1       1.00000    0.89480    0.50000   1.00
C1       1.10520    1.00000    0.50000   1.00
C1       0.89480    1.00000    0.50000   1.00
C1       1.00000    1.10520    0.50000   1.00
C1       1.00000    1.00000    0.60520   1.00
O1       1.00000    0.50000    1.00000   1.00
Zn1      1.03280    0.46720    0.96720   1.00
Zn1      0.96720    0.53280    0.96720   1.00
Zn1      0.96720    0.46720    1.03280   1.00
Zn1      1.03280    0.53280    1.03280   1.00
O2       1.02350    0.47650    0.91180   1.00
O2       1.02350    0.41180    0.97650   1.00
O2       1.08820    0.47650    0.97650   1.00
O2       0.97650    0.52350    0.91180   1.00
O2       0.91180    0.52350    0.97650   1.00
O2       0.97650    0.58820    0.97650   1.00
O2       0.97650    0.41180    1.02350   1.00
O2       0.91180    0.47650    1.02350   1.00
O2       0.97650    0.47650    1.08820   1.00
O2       1.08820    0.52350    1.02350   1.00
O2       1.02350    0.58820    1.02350   1.00
O2       1.02350    0.52350    1.08820   1.00
C1       1.00000    0.50000    0.89480   1.00
C1       1.00000    0.39480    1.00000   1.00
C1       1.10520    0.50000    1.00000   1.00
C1       0.89480    0.50000    1.00000   1.00
C1       1.00000    0.60520    1.00000   1.00
C1       1.00000    0.50000    1.10520   1.00
O1       0.50000    1.00000    1.00000   1.00
Zn1      0.53280    0.96720    0.96720   1.00
Zn1      0.46720    1.03280    0.96720   1.00
Zn1      0.46720    0.96720    1.03280   1.00
Zn1      0.53280    1.03280    1.03280   1.00
O2       0.52350    0.97650    0.91180   1.00
O2       0.52350    0.91180    0.97650   1.00
O2       0.58820    0.97650    0.97650   1.00
O2       0.47650    1.02350    0.91180   1.00
O2       0.41180    1.02350    0.97650   1.00
O2       0.47650    1.08820    0.97650   1.00
O2       0.47650    0.91180    1.02350   1.00
O2       0.41180    0.97650    1.02350   1.00
O2       0.47650    0.97650    1.08820   1.00
O2       0.58820    1.02350    1.02350   1.00
O2       0.52350    1.08820    1.02350   1.00
O2       0.52350    1.02350    1.08820   1.00
C1       0.50000    1.00000    0.89480   1.00
C1       0.50000    0.89480    1.00000   1.00
C1       0.60520    1.00000    1.00000   1.00
C1       0.39480    1.00000    1.00000   1.00
C1       0.50000    1.10520    1.00000   1.00
C1       0.50000    1.00000    1.10520   1.00
C4       0.75249    0.75410    0.98025   1.00
C4       0.75403    0.75424    1.02191   1.00
C3       0.72328    0.77468    0.95897   1.00
C3       0.72910    0.77817    1.04504   1.00
C3       0.78096    0.73266    0.95854   1.00
C3       0.78141    0.72974    1.04170   1.00
C2       0.75047    0.75540    0.89595   1.00
C2       0.75580    0.75314    1.10622   1.00
C3       0.72236    0.77552    0.91811   1.00
C3       0.72977    0.77754    1.08591   1.00
C3       0.77913    0.73445    0.91696   1.00
C3       0.78100    0.72980    1.08336   1.00
H1       0.70136    0.78951    0.97237   1.00
H1       0.70979    0.79724    1.03306   1.00
C5       0.81009    0.71006    0.97835   1.00
C5       0.80836    0.70622    1.01998   1.00
H1       0.70063    0.79103    0.90451   1.00
H1       0.71093    0.79539    1.10091   1.00
H1       0.79902    0.71981    0.90052   1.00
H1       0.79985    0.71257    1.09848   1.00
C6       0.84248    0.69095    0.95515   1.00
C6       0.83427    0.67739    1.04119   1.00
H2       0.85325    0.71155    0.93345   1.00
H2       0.81703    0.66211    1.06310   1.00
H2       0.86835    0.68618    0.97286   1.00
H2       0.84320    0.65354    1.02228   1.00
C6       0.83000    0.65129    0.93606   1.00
C6       0.87154    0.69666    1.05942   1.00
H2       0.80110    0.65439    0.92292   1.00
H2       0.86348    0.72396    1.07383   1.00
C6       0.85782    0.63333    0.90459   1.00
C6       0.89578    0.67180    1.08911   1.00
H2       0.82633    0.62998    0.95949   1.00
H2       0.89077    0.70518    1.03546   1.00
C6       0.85974    0.65900    0.86735   1.00
C6       0.87250    0.66370    1.12708   1.00
C6       0.89962    0.62734    0.92074   1.00
C6       0.90903    0.63253    1.07107   1.00
C6       0.84159    0.59280    0.89245   1.00
C6       0.93289    0.69516    1.10054   1.00
H2       0.83060    0.66431    0.85558   1.00
H2       0.86217    0.69085    1.14020   1.00
H2       0.87315    0.68719    0.87330   1.00
H2       0.84720    0.64529    1.12154   1.00
H2       0.87701    0.64494    0.84459   1.00
H2       0.89054    0.64873    1.14863   1.00
H2       0.91802    0.61227    0.89955   1.00
H2       0.92821    0.61670    1.09098   1.00
H2       0.91343    0.65524    0.92725   1.00
H2       0.88406    0.61380    1.06494   1.00
H2       0.89902    0.61002    0.94745   1.00
H2       0.92481    0.63737    1.04385   1.00
H2       0.81220    0.59544    0.88042   1.00
H2       0.92515    0.72307    1.11383   1.00
H2       0.85993    0.57916    0.87025   1.00
H2       0.95070    0.67907    1.12149   1.00
H2       0.84027    0.57305    0.91739   1.00
H2       0.95099    0.70112    1.07502   1.00
C4       0.75410    0.98025    0.75249   1.00
C4       0.75424    1.02191    0.75403   1.00
C3       0.77468    0.95897    0.72328   1.00
C3       0.77817    1.04504    0.72910   1.00
C3       0.73266    0.95854    0.78096   1.00
C3       0.72974    1.04170    0.78141   1.00
C2       0.75540    0.89595    0.75047   1.00
C2       0.75314    1.10622    0.75580   1.00
C3       0.77552    0.91811    0.72236   1.00
C3       0.77754    1.08591    0.72977   1.00
C3       0.73445    0.91696    0.77913   1.00
C3       0.72980    1.08336    0.78100   1.00
H1       0.78951    0.97237    0.70136   1.00
H1       0.79724    1.03306    0.70979   1.00
C5       0.71006    0.97835    0.81009   1.00
C5       0.70622    1.01998    0.80836   1.00
H1       0.79103    0.90451    0.70063   1.00
H1       0.79539    1.10091    0.71093   1.00
H1       0.71981    0.90052    0.79902   1.00
H1       0.71257    1.09848    0.79985   1.00
C6       0.69095    0.95515    0.84248   1.00
C6       0.67739    1.04119    0.83427   1.00
H2       0.71155    0.93345    0.85325   1.00
H2       0.66211    1.06310    0.81703   1.00
H2       0.68618    0.97286    0.86835   1.00
H2       0.65354    1.02228    0.84320   1.00
C6       0.65129    0.93606    0.83000   1.00
C6       0.69666    1.05942    0.87154   1.00
H2       0.65439    0.92292    0.80110   1.00
H2       0.72396    1.07383    0.86348   1.00
C6       0.63333    0.90459    0.85782   1.00
C6       0.67180    1.08911    0.89578   1.00
H2       0.62998    0.95949    0.82633   1.00
H2       0.70518    1.03546    0.89077   1.00
C6       0.65900    0.86735    0.85974   1.00
C6       0.66370    1.12708    0.87250   1.00
C6       0.62734    0.92074    0.89962   1.00
C6       0.63253    1.07107    0.90903   1.00
C6       0.59280    0.89245    0.84159   1.00
C6       0.69516    1.10054    0.93289   1.00
H2       0.66431    0.85558    0.83060   1.00
H2       0.69085    1.14020    0.86217   1.00
H2       0.68719    0.87330    0.87315   1.00
H2       0.64529    1.12154    0.84720   1.00
H2       0.64494    0.84459    0.87701   1.00
H2       0.64873    1.14863    0.89054   1.00
H2       0.61227    0.89955    0.91802   1.00
H2       0.61670    1.09098    0.92821   1.00
H2       0.65524    0.92725    0.91343   1.00
H2       0.61380    1.06494    0.88406   1.00
H2       0.61002    0.94745    0.89902   1.00
H2       0.63737    1.04385    0.92481   1.00
H2       0.59544    0.88042    0.81220   1.00
H2       0.72307    1.11383    0.92515   1.00
H2       0.57916    0.87025    0.85993   1.00
H2       0.67907    1.12149    0.95070   1.00
H2       0.57305    0.91739    0.84027   1.00
H2       0.70112    1.07502    0.95099   1.00
C4       0.51975    0.75249    0.74590   1.00
C4       0.47809    0.75403    0.74576   1.00
C3       0.54103    0.72328    0.72532   1.00
C3       0.45496    0.72910    0.72183   1.00
C3       0.54146    0.78096    0.76734   1.00
C3       0.45830    0.78141    0.77026   1.00
C2       0.60405    0.75047    0.74460   1.00
C2       0.39378    0.75580    0.74686   1.00
C3       0.58189    0.72236    0.72448   1.00
C3       0.41409    0.72977    0.72246   1.00
C3       0.58304    0.77913    0.76555   1.00
C3       0.41664    0.78100    0.77020   1.00
H1       0.52763    0.70136    0.71049   1.00
H1       0.46694    0.70979    0.70276   1.00
C5       0.52165    0.81009    0.78994   1.00
C5       0.48002    0.80836    0.79378   1.00
H1       0.59549    0.70063    0.70897   1.00
H1       0.39909    0.71093    0.70461   1.00
H1       0.59948    0.79902    0.78019   1.00
H1       0.40152    0.79985    0.78743   1.00
C6       0.54485    0.84248    0.80905   1.00
C6       0.45881    0.83427    0.82261   1.00
H2       0.56655    0.85325    0.78845   1.00
H2       0.43690    0.81703    0.83789   1.00
H2       0.52714    0.86835    0.81382   1.00
H2       0.47772    0.84320    0.84646   1.00
C6       0.56394    0.83000    0.84871   1.00
C6       0.44058    0.87154    0.80334   1.00
H2       0.57708    0.80110    0.84561   1.00
H2       0.42617    0.86348    0.77604   1.00
C6       0.59541    0.85782    0.86667   1.00
C6       0.41089    0.89578    0.82820   1.00
H2       0.54051    0.82633    0.87002   1.00
H2       0.46454    0.89077    0.79482   1.00
C6       0.63265    0.85974    0.84100   1.00
C6       0.37292    0.87250    0.83630   1.00
C6       0.57926    0.89962    0.87266   1.00
C6       0.42893    0.90903    0.86747   1.00
C6       0.60755    0.84159    0.90720   1.00
C6       0.39946    0.93289    0.80484   1.00
H2       0.64442    0.83060    0.83569   1.00
H2       0.35980    0.86217    0.80915   1.00
H2       0.62670    0.87315    0.81281   1.00
H2       0.37846    0.84720    0.85471   1.00
H2       0.65541    0.87701    0.85506   1.00
H2       0.35137    0.89054    0.85127   1.00
H2       0.60045    0.91802    0.88773   1.00
H2       0.40902    0.92821    0.88330   1.00
H2       0.57275    0.91343    0.84476   1.00
H2       0.43506    0.88406    0.88620   1.00
H2       0.55255    0.89902    0.88998   1.00
H2       0.45615    0.92481    0.86263   1.00
H2       0.61958    0.81220    0.90456   1.00
H2       0.38617    0.92515    0.77693   1.00
H2       0.62975    0.85993    0.92084   1.00
H2       0.37851    0.95070    0.82093   1.00
H2       0.58261    0.84027    0.92695   1.00
H2       0.42498    0.95099    0.79888   1.00
C4       0.98025    0.75249    0.75410   1.00
C4       1.02191    0.75403    0.75424   1.00
C3       0.95897    0.72328    0.77468   1.00
C3       1.04504    0.72910    0.77817   1.00
C3       0.95854    0.78096    0.73266   1.00
C3       1.04170    0.78141    0.72974   1.00
C2       0.89595    0.75047    0.75540   1.00
C2       1.10622    0.75580    0.75314   1.00
C3       0.91811    0.72236    0.77552   1.00
C3       1.08591    0.72977    0.77754   1.00
C3       0.91696    0.77913    0.73445   1.00
C3       1.08336    0.78100    0.72980   1.00
H1       0.97237    0.70136    0.78951   1.00
H1       1.03306    0.70979    0.79724   1.00
C5       0.97835    0.81009    0.71006   1.00
C5       1.01998    0.80836    0.70622   1.00
H1       0.90451    0.70063    0.79103   1.00
H1       1.10091    0.71093    0.79539   1.00
H1       0.90052    0.79902    0.71981   1.00
H1       1.09848    0.79985    0.71257   1.00
C6       0.95515    0.84248    0.69095   1.00
C6       1.04119    0.83427    0.67739   1.00
H2       0.93345    0.85325    0.71155   1.00
H2       1.06310    0.81703    0.66211   1.00
H2       0.97286    0.86835    0.68618   1.00
H2       1.02228    0.84320    0.65354   1.00
C6       0.93606    0.83000    0.65129   1.00
C6       1.05942    0.87154    0.69666   1.00
H2       0.92292    0.80110    0.65439   1.00
H2       1.07383    0.86348    0.72396   1.00
C6       0.90459    0.85782    0.63333   1.00
C6       1.08911    0.89578    0.67180   1.00
H2       0.95949    0.82633    0.62998   1.00
H2       1.03546    0.89077    0.70518   1.00
C6       0.86735    0.85974    0.65900   1.00
C6       1.12708    0.87250    0.66370   1.00
C6       0.92074    0.89962    0.62734   1.00
C6       1.07107    0.90903    0.63253   1.00
C6       0.89245    0.84159    0.59280   1.00
C6       1.10054    0.93289    0.69516   1.00
H2       0.85558    0.83060    0.66431   1.00
H2       1.14020    0.86217    0.69085   1.00
H2       0.87330    0.87315    0.68719   1.00
H2       1.12154    0.84720    0.64529   1.00
H2       0.84459    0.87701    0.64494   1.00
H2       1.14863    0.89054    0.64873   1.00
H2       0.89955    0.91802    0.61227   1.00
H2       1.09098    0.92821    0.61670   1.00
H2       0.92725    0.91343    0.65524   1.00
H2       1.06494    0.88406    0.61380   1.00
H2       0.94745    0.89902    0.61002   1.00
H2       1.04385    0.92481    0.63737   1.00
H2       0.88042    0.81220    0.59544   1.00
H2       1.11383    0.92515    0.72307   1.00
H2       0.87025    0.85993    0.57916   1.00
H2       1.12149    0.95070    0.67907   1.00
H2       0.91739    0.84027    0.57305   1.00
H2       1.07502    0.95099    0.70112   1.00
C4       0.74590    0.51975    0.75249   1.00
C4       0.74576    0.47809    0.75403   1.00
C3       0.72532    0.54103    0.72328   1.00
C3       0.72183    0.45496    0.72910   1.00
C3       0.76734    0.54146    0.78096   1.00
C3       0.77026    0.45830    0.78141   1.00
C2       0.74460    0.60405    0.75047   1.00
C2       0.74686    0.39378    0.75580   1.00
C3       0.72448    0.58189    0.72236   1.00
C3       0.72246    0.41409    0.72977   1.00
C3       0.76555    0.58304    0.77913   1.00
C3       0.77020    0.41664    0.78100   1.00
H1       0.71049    0.52763    0.70136   1.00
H1       0.70276    0.46694    0.70979   1.00
C5       0.78994    0.52165    0.81009   1.00
C5       0.79378    0.48002    0.80836   1.00
H1       0.70897    0.59549    0.70063   1.00
H1       0.70461    0.39909    0.71093   1.00
H1       0.78019    0.59948    0.79902   1.00
H1       0.78743    0.40152    0.79985   1.00
C6       0.80905    0.54485    0.84248   1.00
C6       0.82261    0.45881    0.83427   1.00
H2       0.78845    0.56655    0.85325   1.00
H2       0.83789    0.43690    0.81703   1.00
H2       0.81382    0.52714    0.86835   1.00
H2       0.84646    0.47772    0.84320   1.00
C6       0.84871    0.56394    0.83000   1.00
C6       0.80334    0.44058    0.87154   1.00
H2       0.84561    0.57708    0.80110   1.00
H2       0.77604    0.42617    0.86348   1.00
C6       0.86667    0.59541    0.85782   1.00
C6       0.82820    0.41089    0.89578   1.00
H2       0.87002    0.54051    0.82633   1.00
H2       0.79482    0.46454    0.89077   1.00
C6       0.84100    0.63265    0.85974   1.00
C6       0.83630    0.37292    0.87250   1.00
C6       0.87266    0.57926    0.89962   1.00
C6       0.86747    0.42893    0.90903   1.00
C6       0.90720    0.60755    0.84159   1.00
C6       0.80484    0.39946    0.93289   1.00
H2       0.83569    0.64442    0.83060   1.00
H2       0.80915    0.35980    0.86217   1.00
H2       0.81281    0.62670    0.87315   1.00
H2       0.85471    0.37846    0.84720   1.00
H2       0.85506    0.65541    0.87701   1.00
H2       0.85127    0.35137    0.89054   1.00
H2       0.88773    0.60045    0.91802   1.00
H2       0.88330    0.40902    0.92821   1.00
H2       0.84476    0.57275    0.91343   1.00
H2       0.88620    0.43506    0.88406   1.00
H2       0.88998    0.55255    0.89902   1.00
H2       0.86263    0.45615    0.92481   1.00
H2       0.90456    0.61958    0.81220   1.00
H2       0.77693    0.38617    0.92515   1.00
H2       0.92084    0.62975    0.85993   1.00
H2       0.82093    0.37851    0.95070   1.00
H2       0.92695    0.58261    0.84027   1.00
H2       0.79888    0.42498    0.95099   1.00
C4       0.75249    0.74590    0.51975   1.00
C4       0.75403    0.74576    0.47809   1.00
C3       0.72328    0.72532    0.54103   1.00
C3       0.72910    0.72183    0.45496   1.00
C3       0.78096    0.76734    0.54146   1.00
C3       0.78141    0.77026    0.45830   1.00
C2       0.75047    0.74460    0.60405   1.00
C2       0.75580    0.74686    0.39378   1.00
C3       0.72236    0.72448    0.58189   1.00
C3       0.72977    0.72246    0.41409   1.00
C3       0.77913    0.76555    0.58304   1.00
C3       0.78100    0.77020    0.41664   1.00
H1       0.70136    0.71049    0.52763   1.00
H1       0.70979    0.70276    0.46694   1.00
C5       0.81009    0.78994    0.52165   1.00
C5       0.80836    0.79378    0.48002   1.00
H1       0.70063    0.70897    0.59549   1.00
H1       0.71093    0.70461    0.39909   1.00
H1       0.79902    0.78019    0.59948   1.00
H1       0.79985    0.78743    0.40152   1.00
C6       0.84248    0.80905    0.54485   1.00
C6       0.83427    0.82261    0.45881   1.00
H2       0.85325    0.78845    0.56655   1.00
H2       0.81703    0.83789    0.43690   1.00
H2       0.86835    0.81382    0.52714   1.00
H2       0.84320    0.84646    0.47772   1.00
C6       0.83000    0.84871    0.56394   1.00
C6       0.87154    0.80334    0.44058   1.00
H2       0.80110    0.84561    0.57708   1.00
H2       0.86348    0.77604    0.42617   1.00
C6       0.85782    0.86667    0.59541   1.00
C6       0.89578    0.82820    0.41089   1.00
H2       0.82633    0.87002    0.54051   1.00
H2       0.89077    0.79482    0.46454   1.00
C6       0.85974    0.84100    0.63265   1.00
C6       0.87250    0.83630    0.37292   1.00
C6       0.89962    0.87266    0.57926   1.00
C6       0.90903    0.86747    0.42893   1.00
C6       0.84159    0.90720    0.60755   1.00
C6       0.93289    0.80484    0.39946   1.00
H2       0.83060    0.83569    0.64442   1.00
H2       0.86217    0.80915    0.35980   1.00
H2       0.87315    0.81281    0.62670   1.00
H2       0.84720    0.85471    0.37846   1.00
H2       0.87701    0.85506    0.65541   1.00
H2       0.89054    0.85127    0.35137   1.00
H2       0.91802    0.88773    0.60045   1.00
H2       0.92821    0.88330    0.40902   1.00
H2       0.91343    0.84476    0.57275   1.00
H2       0.88406    0.88620    0.43506   1.00
H2       0.89902    0.88998    0.55255   1.00
H2       0.92481    0.86263    0.45615   1.00
H2       0.81220    0.90456    0.61958   1.00
H2       0.92515    0.77693    0.38617   1.00
H2       0.85993    0.92084    0.62975   1.00
H2       0.95070    0.82093    0.37851   1.00
H2       0.84027    0.92695    0.58261   1.00
H2       0.95099    0.79888    0.42498   1.00
C4       0.25249    0.25410    0.98025   1.00
C4       0.25403    0.25424    1.02191   1.00
C3       0.22328    0.27468    0.95897   1.00
C3       0.22910    0.27817    1.04504   1.00
C3       0.28096    0.23266    0.95854   1.00
C3       0.28141    0.22974    1.04170   1.00
C2       0.25047    0.25540    0.89595   1.00
C2       0.25580    0.25314    1.10622   1.00
C3       0.22236    0.27552    0.91811   1.00
C3       0.22977    0.27754    1.08591   1.00
C3       0.27913    0.23445    0.91696   1.00
C3       0.28100    0.22980    1.08336   1.00
H1       0.20136    0.28951    0.97237   1.00
H1       0.20979    0.29724    1.03306   1.00
C5       0.31009    0.21006    0.97835   1.00
C5       0.30836    0.20622    1.01998   1.00
H1       0.20063    0.29103    0.90451   1.00
H1       0.21093    0.29539    1.10091   1.00
H1       0.29902    0.21981    0.90052   1.00
H1       0.29985    0.21257    1.09848   1.00
C6       0.34248    0.19095    0.95515   1.00
C6       0.33427    0.17739    1.04119   1.00
H2       0.35325    0.21155    0.93345   1.00
H2       0.31703    0.16211    1.06310   1.00
H2       0.36835    0.18618    0.97286   1.00
H2       0.34320    0.15354    1.02228   1.00
C6       0.33000    0.15129    0.93606   1.00
C6       0.37154    0.19666    1.05942   1.00
H2       0.30110    0.15439    0.92292   1.00
H2       0.36348    0.22396    1.07383   1.00
C6       0.35782    0.13333    0.90459   1.00
C6       0.39578    0.17180    1.08911   1.00
H2       0.32633    0.12998    0.95949   1.00
H2       0.39077    0.20518    1.03546   1.00
C6       0.35974    0.15900    0.86735   1.00
C6       0.37250    0.16370    1.12708   1.00
C6       0.39962    0.12734    0.92074   1.00
C6       0.40903    0.13253    1.07107   1.00
C6       0.34159    0.09280    0.89245   1.00
C6       0.43289    0.19516    1.10054   1.00
H2       0.33060    0.16431    0.85558   1.00
H2       0.36217    0.19085    1.14020   1.00
H2       0.37315    0.18719    0.87330   1.00
H2       0.34720    0.14529    1.12154   1.00
H2       0.37701    0.14494    0.84459   1.00
H2       0.39054    0.14873    1.14863   1.00
H2       0.41802    0.11227    0.89955   1.00
H2       0.42821    0.11670    1.09098   1.00
H2       0.41343    0.15524    0.92725   1.00
H2       0.38406    0.11380    1.06494   1.00
H2       0.39902    0.11002    0.94745   1.00
H2       0.42481    0.13737    1.04385   1.00
H2       0.31220    0.09544    0.88042   1.00
H2       0.42515    0.22307    1.11383   1.00
H2       0.35993    0.07916    0.87025   1.00
H2       0.45070    0.17907    1.12149   1.00
H2       0.34027    0.07305    0.91739   1.00
H2       0.45099    0.20112    1.07502   1.00
C4       0.25410    0.48025    0.75249   1.00
C4       0.25424    0.52191    0.75403   1.00
C3       0.27468    0.45897    0.72328   1.00
C3       0.27817    0.54504    0.72910   1.00
C3       0.23266    0.45854    0.78096   1.00
C3       0.22974    0.54170    0.78141   1.00
C2       0.25540    0.39595    0.75047   1.00
C2       0.25314    0.60622    0.75580   1.00
C3       0.27552    0.41811    0.72236   1.00
C3       0.27754    0.58591    0.72977   1.00
C3       0.23445    0.41696    0.77913   1.00
C3       0.22980    0.58336    0.78100   1.00
H1       0.28951    0.47237    0.70136   1.00
H1       0.29724    0.53306    0.70979   1.00
C5       0.21006    0.47835    0.81009   1.00
C5       0.20622    0.51998    0.80836   1.00
H1       0.29103    0.40451    0.70063   1.00
H1       0.29539    0.60091    0.71093   1.00
H1       0.21981    0.40052    0.79902   1.00
H1       0.21257    0.59848    0.79985   1.00
C6       0.19095    0.45515    0.84248   1.00
C6       0.17739    0.54119    0.83427   1.00
H2       0.21155    0.43345    0.85325   1.00
H2       0.16211    0.56310    0.81703   1.00
H2       0.18618    0.47286    0.86835   1.00
H2       0.15354    0.52228    0.84320   1.00
C6       0.15129    0.43606    0.83000   1.00
C6       0.19666    0.55942    0.87154   1.00
H2       0.15439    0.42292    0.80110   1.00
H2       0.22396    0.57383    0.86348   1.00
C6       0.13333    0.40459    0.85782   1.00
C6       0.17180    0.58911    0.89578   1.00
H2       0.12998    0.45949    0.82633   1.00
H2       0.20518    0.53546    0.89077   1.00
C6       0.15900    0.36735    0.85974   1.00
C6       0.16370    0.62708    0.87250   1.00
C6       0.12734    0.42074    0.89962   1.00
C6       0.13253    0.57107    0.90903   1.00
C6       0.09280    0.39245    0.84159   1.00
C6       0.19516    0.60054    0.93289   1.00
H2       0.16431    0.35558    0.83060   1.00
H2       0.19085    0.64020    0.86217   1.00
H2       0.18719    0.37330    0.87315   1.00
H2       0.14529    0.62154    0.84720   1.00
H2       0.14494    0.34459    0.87701   1.00
H2       0.14873    0.64863    0.89054   1.00
H2       0.11227    0.39955    0.91802   1.00
H2       0.11670    0.59098    0.92821   1.00
H2       0.15524    0.42725    0.91343   1.00
H2       0.11380    0.56494    0.88406   1.00
H2       0.11002    0.44745    0.89902   1.00
H2       0.13737    0.54385    0.92481   1.00
H2       0.09544    0.38042    0.81220   1.00
H2       0.22307    0.61383    0.92515   1.00
H2       0.07916    0.37025    0.85993   1.00
H2       0.17907    0.62149    0.95070   1.00
H2       0.07305    0.41739    0.84027   1.00
H2       0.20112    0.57502    0.95099   1.00
C4       0.01975    0.25249    0.74590   1.00
C4       -0.02191   0.25403    0.74576   1.00
C3       0.04103    0.22328    0.72532   1.00
C3       -0.04504   0.22910    0.72183   1.00
C3       0.04146    0.28096    0.76734   1.00
C3       -0.04170   0.28141    0.77026   1.00
C2       0.10405    0.25047    0.74460   1.00
C2       -0.10622   0.25580    0.74686   1.00
C3       0.08189    0.22236    0.72448   1.00
C3       -0.08591   0.22977    0.72246   1.00
C3       0.08304    0.27913    0.76555   1.00
C3       -0.08336   0.28100    0.77020   1.00
H1       0.02763    0.20136    0.71049   1.00
H1       -0.03306   0.20979    0.70276   1.00
C5       0.02165    0.31009    0.78994   1.00
C5       -0.01998   0.30836    0.79378   1.00
H1       0.09549    0.20063    0.70897   1.00
H1       -0.10091   0.21093    0.70461   1.00
H1       0.09948    0.29902    0.78019   1.00
H1       -0.09848   0.29985    0.78743   1.00
C6       0.04485    0.34248    0.80905   1.00
C6       -0.04119   0.33427    0.82261   1.00
H2       0.06655    0.35325    0.78845   1.00
H2       -0.06310   0.31703    0.83789   1.00
H2       0.02714    0.36835    0.81382   1.00
H2       -0.02228   0.34320    0.84646   1.00
C6       0.06394    0.33000    0.84871   1.00
C6       -0.05942   0.37154    0.80334   1.00
H2       0.07708    0.30110    0.84561   1.00
H2       -0.07383   0.36348    0.77604   1.00
C6       0.09541    0.35782    0.86667   1.00
C6       -0.08911   0.39578    0.82820   1.00
H2       0.04051    0.32633    0.87002   1.00
H2       -0.03546   0.39077    0.79482   1.00
C6       0.13265    0.35974    0.84100   1.00
C6       -0.12708   0.37250    0.83630   1.00
C6       0.07926    0.39962    0.87266   1.00
C6       -0.07107   0.40903    0.86747   1.00
C6       0.10755    0.34159    0.90720   1.00
C6       -0.10054   0.43289    0.80484   1.00
H2       0.14442    0.33060    0.83569   1.00
H2       -0.14020   0.36217    0.80915   1.00
H2       0.12670    0.37315    0.81281   1.00
H2       -0.12154   0.34720    0.85471   1.00
H2       0.15541    0.37701    0.85506   1.00
H2       -0.14863   0.39054    0.85127   1.00
H2       0.10045    0.41802    0.88773   1.00
H2       -0.09098   0.42821    0.88330   1.00
H2       0.07275    0.41343    0.84476   1.00
H2       -0.06494   0.38406    0.88620   1.00
H2       0.05255    0.39902    0.88998   1.00
H2       -0.04385   0.42481    0.86263   1.00
H2       0.11958    0.31220    0.90456   1.00
H2       -0.11383   0.42515    0.77693   1.00
H2       0.12975    0.35993    0.92084   1.00
H2       -0.12149   0.45070    0.82093   1.00
H2       0.08261    0.34027    0.92695   1.00
H2       -0.07502   0.45099    0.79888   1.00
C4       0.48025    0.25249    0.75410   1.00
C4       0.52191    0.25403    0.75424   1.00
C3       0.45897    0.22328    0.77468   1.00
C3       0.54504    0.22910    0.77817   1.00
C3       0.45854    0.28096    0.73266   1.00
C3       0.54170    0.28141    0.72974   1.00
C2       0.39595    0.25047    0.75540   1.00
C2       0.60622    0.25580    0.75314   1.00
C3       0.41811    0.22236    0.77552   1.00
C3       0.58591    0.22977    0.77754   1.00
C3       0.41696    0.27913    0.73445   1.00
C3       0.58336    0.28100    0.72980   1.00
H1       0.47237    0.20136    0.78951   1.00
H1       0.53306    0.20979    0.79724   1.00
C5       0.47835    0.31009    0.71006   1.00
C5       0.51998    0.30836    0.70622   1.00
H1       0.40451    0.20063    0.79103   1.00
H1       0.60091    0.21093    0.79539   1.00
H1       0.40052    0.29902    0.71981   1.00
H1       0.59848    0.29985    0.71257   1.00
C6       0.45515    0.34248    0.69095   1.00
C6       0.54119    0.33427    0.67739   1.00
H2       0.43345    0.35325    0.71155   1.00
H2       0.56310    0.31703    0.66211   1.00
H2       0.47286    0.36835    0.68618   1.00
H2       0.52228    0.34320    0.65354   1.00
C6       0.43606    0.33000    0.65129   1.00
C6       0.55942    0.37154    0.69666   1.00
H2       0.42292    0.30110    0.65439   1.00
H2       0.57383    0.36348    0.72396   1.00
C6       0.40459    0.35782    0.63333   1.00
C6       0.58911    0.39578    0.67180   1.00
H2       0.45949    0.32633    0.62998   1.00
H2       0.53546    0.39077    0.70518   1.00
C6       0.36735    0.35974    0.65900   1.00
C6       0.62708    0.37250    0.66370   1.00
C6       0.42074    0.39962    0.62734   1.00
C6       0.57107    0.40903    0.63253   1.00
C6       0.39245    0.34159    0.59280   1.00
C6       0.60054    0.43289    0.69516   1.00
H2       0.35558    0.33060    0.66431   1.00
H2       0.64020    0.36217    0.69085   1.00
H2       0.37330    0.37315    0.68719   1.00
H2       0.62154    0.34720    0.64529   1.00
H2       0.34459    0.37701    0.64494   1.00
H2       0.64863    0.39054    0.64873   1.00
H2       0.39955    0.41802    0.61227   1.00
H2       0.59098    0.42821    0.61670   1.00
H2       0.42725    0.41343    0.65524   1.00
H2       0.56494    0.38406    0.61380   1.00
H2       0.44745    0.39902    0.61002   1.00
H2       0.54385    0.42481    0.63737   1.00
H2       0.38042    0.31220    0.59544   1.00
H2       0.61383    0.42515    0.72307   1.00
H2       0.37025    0.35993    0.57916   1.00
H2       0.62149    0.45070    0.67907   1.00
H2       0.41739    0.34027    0.57305   1.00
H2       0.57502    0.45099    0.70112   1.00
C4       0.24590    0.01975    0.75249   1.00
C4       0.24576    -0.02191   0.75403   1.00
C3       0.22532    0.04103    0.72328   1.00
C3       0.22183    -0.04504   0.72910   1.00
C3       0.26734    0.04146    0.78096   1.00
C3       0.27026    -0.04170   0.78141   1.00
C2       0.24460    0.10405    0.75047   1.00
C2       0.24686    -0.10622   0.75580   1.00
C3       0.22448    0.08189    0.72236   1.00
C3       0.22246    -0.08591   0.72977   1.00
C3       0.26555    0.08304    0.77913   1.00
C3       0.27020    -0.08336   0.78100   1.00
H1       0.21049    0.02763    0.70136   1.00
H1       0.20276    -0.03306   0.70979   1.00
C5       0.28994    0.02165    0.81009   1.00
C5       0.29378    -0.01998   0.80836   1.00
H1       0.20897    0.09549    0.70063   1.00
H1       0.20461    -0.10091   0.71093   1.00
H1       0.28019    0.09948    0.79902   1.00
H1       0.28743    -0.09848   0.79985   1.00
C6       0.30905    0.04485    0.84248   1.00
C6       0.32261    -0.04119   0.83427   1.00
H2       0.28845    0.06655    0.85325   1.00
H2       0.33789    -0.06310   0.81703   1.00
H2       0.31382    0.02714    0.86835   1.00
H2       0.34646    -0.02228   0.84320   1.00
C6       0.34871    0.06394    0.83000   1.00
C6       0.30334    -0.05942   0.87154   1.00
H2       0.34561    0.07708    0.80110   1.00
H2       0.27604    -0.07383   0.86348   1.00
C6       0.36667    0.09541    0.85782   1.00
C6       0.32820    -0.08911   0.89578   1.00
H2       0.37002    0.04051    0.82633   1.00
H2       0.29482    -0.03546   0.89077   1.00
C6       0.34100    0.13265    0.85974   1.00
C6       0.33630    -0.12708   0.87250   1.00
C6       0.37266    0.07926    0.89962   1.00
C6       0.36747    -0.07107   0.90903   1.00
C6       0.40720    0.10755    0.84159   1.00
C6       0.30484    -0.10054   0.93289   1.00
H2       0.33569    0.14442    0.83060   1.00
H2       0.30915    -0.14020   0.86217   1.00
H2       0.31281    0.12670    0.87315   1.00
H2       0.35471    -0.12154   0.84720   1.00
H2       0.35506    0.15541    0.87701   1.00
H2       0.35127    -0.14863   0.89054   1.00
H2       0.38773    0.10045    0.91802   1.00
H2       0.38330    -0.09098   0.92821   1.00
H2       0.34476    0.07275    0.91343   1.00
H2       0.38620    -0.06494   0.88406   1.00
H2       0.38998    0.05255    0.89902   1.00
H2       0.36263    -0.04385   0.92481   1.00
H2       0.40456    0.11958    0.81220   1.00
H2       0.27693    -0.11383   0.92515   1.00
H2       0.42084    0.12975    0.85993   1.00
H2       0.32093    -0.12149   0.95070   1.00
H2       0.42695    0.08261    0.84027   1.00
H2       0.29888    -0.07502   0.95099   1.00
C4       0.25249    0.24590    0.51975   1.00
C4       0.25403    0.24576    0.47809   1.00
C3       0.22328    0.22532    0.54103   1.00
C3       0.22910    0.22183    0.45496   1.00
C3       0.28096    0.26734    0.54146   1.00
C3       0.28141    0.27026    0.45830   1.00
C2       0.25047    0.24460    0.60405   1.00
C2       0.25580    0.24686    0.39378   1.00
C3       0.22236    0.22448    0.58189   1.00
C3       0.22977    0.22246    0.41409   1.00
C3       0.27913    0.26555    0.58304   1.00
C3       0.28100    0.27020    0.41664   1.00
H1       0.20136    0.21049    0.52763   1.00
H1       0.20979    0.20276    0.46694   1.00
C5       0.31009    0.28994    0.52165   1.00
C5       0.30836    0.29378    0.48002   1.00
H1       0.20063    0.20897    0.59549   1.00
H1       0.21093    0.20461    0.39909   1.00
H1       0.29902    0.28019    0.59948   1.00
H1       0.29985    0.28743    0.40152   1.00
C6       0.34248    0.30905    0.54485   1.00
C6       0.33427    0.32261    0.45881   1.00
H2       0.35325    0.28845    0.56655   1.00
H2       0.31703    0.33789    0.43690   1.00
H2       0.36835    0.31382    0.52714   1.00
H2       0.34320    0.34646    0.47772   1.00
C6       0.33000    0.34871    0.56394   1.00
C6       0.37154    0.30334    0.44058   1.00
H2       0.30110    0.34561    0.57708   1.00
H2       0.36348    0.27604    0.42617   1.00
C6       0.35782    0.36667    0.59541   1.00
C6       0.39578    0.32820    0.41089   1.00
H2       0.32633    0.37002    0.54051   1.00
H2       0.39077    0.29482    0.46454   1.00
C6       0.35974    0.34100    0.63265   1.00
C6       0.37250    0.33630    0.37292   1.00
C6       0.39962    0.37266    0.57926   1.00
C6       0.40903    0.36747    0.42893   1.00
C6       0.34159    0.40720    0.60755   1.00
C6       0.43289    0.30484    0.39946   1.00
H2       0.33060    0.33569    0.64442   1.00
H2       0.36217    0.30915    0.35980   1.00
H2       0.37315    0.31281    0.62670   1.00
H2       0.34720    0.35471    0.37846   1.00
H2       0.37701    0.35506    0.65541   1.00
H2       0.39054    0.35127    0.35137   1.00
H2       0.41802    0.38773    0.60045   1.00
H2       0.42821    0.38330    0.40902   1.00
H2       0.41343    0.34476    0.57275   1.00
H2       0.38406    0.38620    0.43506   1.00
H2       0.39902    0.38998    0.55255   1.00
H2       0.42481    0.36263    0.45615   1.00
H2       0.31220    0.40456    0.61958   1.00
H2       0.42515    0.27693    0.38617   1.00
H2       0.35993    0.42084    0.62975   1.00
H2       0.45070    0.32093    0.37851   1.00
H2       0.34027    0.42695    0.58261   1.00
H2       0.45099    0.29888    0.42498   1.00
C4       0.25249    0.75410    0.48025   1.00
C4       0.25403    0.75424    0.52191   1.00
C3       0.22328    0.77468    0.45897   1.00
C3       0.22910    0.77817    0.54504   1.00
C3       0.28096    0.73266    0.45854   1.00
C3       0.28141    0.72974    0.54170   1.00
C2       0.25047    0.75540    0.39595   1.00
C2       0.25580    0.75314    0.60622   1.00
C3       0.22236    0.77552    0.41811   1.00
C3       0.22977    0.77754    0.58591   1.00
C3       0.27913    0.73445    0.41696   1.00
C3       0.28100    0.72980    0.58336   1.00
H1       0.20136    0.78951    0.47237   1.00
H1       0.20979    0.79724    0.53306   1.00
C5       0.31009    0.71006    0.47835   1.00
C5       0.30836    0.70622    0.51998   1.00
H1       0.20063    0.79103    0.40451   1.00
H1       0.21093    0.79539    0.60091   1.00
H1       0.29902    0.71981    0.40052   1.00
H1       0.29985    0.71257    0.59848   1.00
C6       0.34248    0.69095    0.45515   1.00
C6       0.33427    0.67739    0.54119   1.00
H2       0.35325    0.71155    0.43345   1.00
H2       0.31703    0.66211    0.56310   1.00
H2       0.36835    0.68618    0.47286   1.00
H2       0.34320    0.65354    0.52228   1.00
C6       0.33000    0.65129    0.43606   1.00
C6       0.37154    0.69666    0.55942   1.00
H2       0.30110    0.65439    0.42292   1.00
H2       0.36348    0.72396    0.57383   1.00
C6       0.35782    0.63333    0.40459   1.00
C6       0.39578    0.67180    0.58911   1.00
H2       0.32633    0.62998    0.45949   1.00
H2       0.39077    0.70518    0.53546   1.00
C6       0.35974    0.65900    0.36735   1.00
C6       0.37250    0.66370    0.62708   1.00
C6       0.39962    0.62734    0.42074   1.00
C6       0.40903    0.63253    0.57107   1.00
C6       0.34159    0.59280    0.39245   1.00
C6       0.43289    0.69516    0.60054   1.00
H2       0.33060    0.66431    0.35558   1.00
H2       0.36217    0.69085    0.64020   1.00
H2       0.37315    0.68719    0.37330   1.00
H2       0.34720    0.64529    0.62154   1.00
H2       0.37701    0.64494    0.34459   1.00
H2       0.39054    0.64873    0.64863   1.00
H2       0.41802    0.61227    0.39955   1.00
H2       0.42821    0.61670    0.59098   1.00
H2       0.41343    0.65524    0.42725   1.00
H2       0.38406    0.61380    0.56494   1.00
H2       0.39902    0.61002    0.44745   1.00
H2       0.42481    0.63737    0.54385   1.00
H2       0.31220    0.59544    0.38042   1.00
H2       0.42515    0.72307    0.61383   1.00
H2       0.35993    0.57916    0.37025   1.00
H2       0.45070    0.67907    0.62149   1.00
H2       0.34027    0.57305    0.41739   1.00
H2       0.45099    0.70112    0.57502   1.00
C4       0.25410    0.98025    0.25249   1.00
C4       0.25424    1.02191    0.25403   1.00
C3       0.27468    0.95897    0.22328   1.00
C3       0.27817    1.04504    0.22910   1.00
C3       0.23266    0.95854    0.28096   1.00
C3       0.22974    1.04170    0.28141   1.00
C2       0.25540    0.89595    0.25047   1.00
C2       0.25314    1.10622    0.25580   1.00
C3       0.27552    0.91811    0.22236   1.00
C3       0.27754    1.08591    0.22977   1.00
C3       0.23445    0.91696    0.27913   1.00
C3       0.22980    1.08336    0.28100   1.00
H1       0.28951    0.97237    0.20136   1.00
H1       0.29724    1.03306    0.20979   1.00
C5       0.21006    0.97835    0.31009   1.00
C5       0.20622    1.01998    0.30836   1.00
H1       0.29103    0.90451    0.20063   1.00
H1       0.29539    1.10091    0.21093   1.00
H1       0.21981    0.90052    0.29902   1.00
H1       0.21257    1.09848    0.29985   1.00
C6       0.19095    0.95515    0.34248   1.00
C6       0.17739    1.04119    0.33427   1.00
H2       0.21155    0.93345    0.35325   1.00
H2       0.16211    1.06310    0.31703   1.00
H2       0.18618    0.97286    0.36835   1.00
H2       0.15354    1.02228    0.34320   1.00
C6       0.15129    0.93606    0.33000   1.00
C6       0.19666    1.05942    0.37154   1.00
H2       0.15439    0.92292    0.30110   1.00
H2       0.22396    1.07383    0.36348   1.00
C6       0.13333    0.90459    0.35782   1.00
C6       0.17180    1.08911    0.39578   1.00
H2       0.12998    0.95949    0.32633   1.00
H2       0.20518    1.03546    0.39077   1.00
C6       0.15900    0.86735    0.35974   1.00
C6       0.16370    1.12708    0.37250   1.00
C6       0.12734    0.92074    0.39962   1.00
C6       0.13253    1.07107    0.40903   1.00
C6       0.09280    0.89245    0.34159   1.00
C6       0.19516    1.10054    0.43289   1.00
H2       0.16431    0.85558    0.33060   1.00
H2       0.19085    1.14020    0.36217   1.00
H2       0.18719    0.87330    0.37315   1.00
H2       0.14529    1.12154    0.34720   1.00
H2       0.14494    0.84459    0.37701   1.00
H2       0.14873    1.14863    0.39054   1.00
H2       0.11227    0.89955    0.41802   1.00
H2       0.11670    1.09098    0.42821   1.00
H2       0.15524    0.92725    0.41343   1.00
H2       0.11380    1.06494    0.38406   1.00
H2       0.11002    0.94745    0.39902   1.00
H2       0.13737    1.04385    0.42481   1.00
H2       0.09544    0.88042    0.31220   1.00
H2       0.22307    1.11383    0.42515   1.00
H2       0.07916    0.87025    0.35993   1.00
H2       0.17907    1.12149    0.45070   1.00
H2       0.07305    0.91739    0.34027   1.00
H2       0.20112    1.07502    0.45099   1.00
C4       0.01975    0.75249    0.24590   1.00
C4       -0.02191   0.75403    0.24576   1.00
C3       0.04103    0.72328    0.22532   1.00
C3       -0.04504   0.72910    0.22183   1.00
C3       0.04146    0.78096    0.26734   1.00
C3       -0.04170   0.78141    0.27026   1.00
C2       0.10405    0.75047    0.24460   1.00
C2       -0.10622   0.75580    0.24686   1.00
C3       0.08189    0.72236    0.22448   1.00
C3       -0.08591   0.72977    0.22246   1.00
C3       0.08304    0.77913    0.26555   1.00
C3       -0.08336   0.78100    0.27020   1.00
H1       0.02763    0.70136    0.21049   1.00
H1       -0.03306   0.70979    0.20276   1.00
C5       0.02165    0.81009    0.28994   1.00
C5       -0.01998   0.80836    0.29378   1.00
H1       0.09549    0.70063    0.20897   1.00
H1       -0.10091   0.71093    0.20461   1.00
H1       0.09948    0.79902    0.28019   1.00
H1       -0.09848   0.79985    0.28743   1.00
C6       0.04485    0.84248    0.30905   1.00
C6       -0.04119   0.83427    0.32261   1.00
H2       0.06655    0.85325    0.28845   1.00
H2       -0.06310   0.81703    0.33789   1.00
H2       0.02714    0.86835    0.31382   1.00
H2       -0.02228   0.84320    0.34646   1.00
C6       0.06394    0.83000    0.34871   1.00
C6       -0.05942   0.87154    0.30334   1.00
H2       0.07708    0.80110    0.34561   1.00
H2       -0.07383   0.86348    0.27604   1.00
C6       0.09541    0.85782    0.36667   1.00
C6       -0.08911   0.89578    0.32820   1.00
H2       0.04051    0.82633    0.37002   1.00
H2       -0.03546   0.89077    0.29482   1.00
C6       0.13265    0.85974    0.34100   1.00
C6       -0.12708   0.87250    0.33630   1.00
C6       0.07926    0.89962    0.37266   1.00
C6       -0.07107   0.90903    0.36747   1.00
C6       0.10755    0.84159    0.40720   1.00
C6       -0.10054   0.93289    0.30484   1.00
H2       0.14442    0.83060    0.33569   1.00
H2       -0.14020   0.86217    0.30915   1.00
H2       0.12670    0.87315    0.31281   1.00
H2       -0.12154   0.84720    0.35471   1.00
H2       0.15541    0.87701    0.35506   1.00
H2       -0.14863   0.89054    0.35127   1.00
H2       0.10045    0.91802    0.38773   1.00
H2       -0.09098   0.92821    0.38330   1.00
H2       0.07275    0.91343    0.34476   1.00
H2       -0.06494   0.88406    0.38620   1.00
H2       0.05255    0.89902    0.38998   1.00
H2       -0.04385   0.92481    0.36263   1.00
H2       0.11958    0.81220    0.40456   1.00
H2       -0.11383   0.92515    0.27693   1.00
H2       0.12975    0.85993    0.42084   1.00
H2       -0.12149   0.95070    0.32093   1.00
H2       0.08261    0.84027    0.42695   1.00
H2       -0.07502   0.95099    0.29888   1.00
C4       0.48025    0.75249    0.25410   1.00
C4       0.52191    0.75403    0.25424   1.00
C3       0.45897    0.72328    0.27468   1.00
C3       0.54504    0.72910    0.27817   1.00
C3       0.45854    0.78096    0.23266   1.00
C3       0.54170    0.78141    0.22974   1.00
C2       0.39595    0.75047    0.25540   1.00
C2       0.60622    0.75580    0.25314   1.00
C3       0.41811    0.72236    0.27552   1.00
C3       0.58591    0.72977    0.27754   1.00
C3       0.41696    0.77913    0.23445   1.00
C3       0.58336    0.78100    0.22980   1.00
H1       0.47237    0.70136    0.28951   1.00
H1       0.53306    0.70979    0.29724   1.00
C5       0.47835    0.81009    0.21006   1.00
C5       0.51998    0.80836    0.20622   1.00
H1       0.40451    0.70063    0.29103   1.00
H1       0.60091    0.71093    0.29539   1.00
H1       0.40052    0.79902    0.21981   1.00
H1       0.59848    0.79985    0.21257   1.00
C6       0.45515    0.84248    0.19095   1.00
C6       0.54119    0.83427    0.17739   1.00
H2       0.43345    0.85325    0.21155   1.00
H2       0.56310    0.81703    0.16211   1.00
H2       0.47286    0.86835    0.18618   1.00
H2       0.52228    0.84320    0.15354   1.00
C6       0.43606    0.83000    0.15129   1.00
C6       0.55942    0.87154    0.19666   1.00
H2       0.42292    0.80110    0.15439   1.00
H2       0.57383    0.86348    0.22396   1.00
C6       0.40459    0.85782    0.13333   1.00
C6       0.58911    0.89578    0.17180   1.00
H2       0.45949    0.82633    0.12998   1.00
H2       0.53546    0.89077    0.20518   1.00
C6       0.36735    0.85974    0.15900   1.00
C6       0.62708    0.87250    0.16370   1.00
C6       0.42074    0.89962    0.12734   1.00
C6       0.57107    0.90903    0.13253   1.00
C6       0.39245    0.84159    0.09280   1.00
C6       0.60054    0.93289    0.19516   1.00
H2       0.35558    0.83060    0.16431   1.00
H2       0.64020    0.86217    0.19085   1.00
H2       0.37330    0.87315    0.18719   1.00
H2       0.62154    0.84720    0.14529   1.00
H2       0.34459    0.87701    0.14494   1.00
H2       0.64863    0.89054    0.14873   1.00
H2       0.39955    0.91802    0.11227   1.00
H2       0.59098    0.92821    0.11670   1.00
H2       0.42725    0.91343    0.15524   1.00
H2       0.56494    0.88406    0.11380   1.00
H2       0.44745    0.89902    0.11002   1.00
H2       0.54385    0.92481    0.13737   1.00
H2       0.38042    0.81220    0.09544   1.00
H2       0.61383    0.92515    0.22307   1.00
H2       0.37025    0.85993    0.07916   1.00
H2       0.62149    0.95070    0.17907   1.00
H2       0.41739    0.84027    0.07305   1.00
H2       0.57502    0.95099    0.20112   1.00
C4       0.24590    0.51975    0.25249   1.00
C4       0.24576    0.47809    0.25403   1.00
C3       0.22532    0.54103    0.22328   1.00
C3       0.22183    0.45496    0.22910   1.00
C3       0.26734    0.54146    0.28096   1.00
C3       0.27026    0.45830    0.28141   1.00
C2       0.24460    0.60405    0.25047   1.00
C2       0.24686    0.39378    0.25580   1.00
C3       0.22448    0.58189    0.22236   1.00
C3       0.22246    0.41409    0.22977   1.00
C3       0.26555    0.58304    0.27913   1.00
C3       0.27020    0.41664    0.28100   1.00
H1       0.21049    0.52763    0.20136   1.00
H1       0.20276    0.46694    0.20979   1.00
C5       0.28994    0.52165    0.31009   1.00
C5       0.29378    0.48002    0.30836   1.00
H1       0.20897    0.59549    0.20063   1.00
H1       0.20461    0.39909    0.21093   1.00
H1       0.28019    0.59948    0.29902   1.00
H1       0.28743    0.40152    0.29985   1.00
C6       0.30905    0.54485    0.34248   1.00
C6       0.32261    0.45881    0.33427   1.00
H2       0.28845    0.56655    0.35325   1.00
H2       0.33789    0.43690    0.31703   1.00
H2       0.31382    0.52714    0.36835   1.00
H2       0.34646    0.47772    0.34320   1.00
C6       0.34871    0.56394    0.33000   1.00
C6       0.30334    0.44058    0.37154   1.00
H2       0.34561    0.57708    0.30110   1.00
H2       0.27604    0.42617    0.36348   1.00
C6       0.36667    0.59541    0.35782   1.00
C6       0.32820    0.41089    0.39578   1.00
H2       0.37002    0.54051    0.32633   1.00
H2       0.29482    0.46454    0.39077   1.00
C6       0.34100    0.63265    0.35974   1.00
C6       0.33630    0.37292    0.37250   1.00
C6       0.37266    0.57926    0.39962   1.00
C6       0.36747    0.42893    0.40903   1.00
C6       0.40720    0.60755    0.34159   1.00
C6       0.30484    0.39946    0.43289   1.00
H2       0.33569    0.64442    0.33060   1.00
H2       0.30915    0.35980    0.36217   1.00
H2       0.31281    0.62670    0.37315   1.00
H2       0.35471    0.37846    0.34720   1.00
H2       0.35506    0.65541    0.37701   1.00
H2       0.35127    0.35137    0.39054   1.00
H2       0.38773    0.60045    0.41802   1.00
H2       0.38330    0.40902    0.42821   1.00
H2       0.34476    0.57275    0.41343   1.00
H2       0.38620    0.43506    0.38406   1.00
H2       0.38998    0.55255    0.39902   1.00
H2       0.36263    0.45615    0.42481   1.00
H2       0.40456    0.61958    0.31220   1.00
H2       0.27693    0.38617    0.42515   1.00
H2       0.42084    0.62975    0.35993   1.00
H2       0.32093    0.37851    0.45070   1.00
H2       0.42695    0.58261    0.34027   1.00
H2       0.29888    0.42498    0.45099   1.00
C4       0.25249    0.74590    0.01975   1.00
C4       0.25403    0.74576    -0.02191   1.00
C3       0.22328    0.72532    0.04103   1.00
C3       0.22910    0.72183    -0.04504   1.00
C3       0.28096    0.76734    0.04146   1.00
C3       0.28141    0.77026    -0.04170   1.00
C2       0.25047    0.74460    0.10405   1.00
C2       0.25580    0.74686    -0.10622   1.00
C3       0.22236    0.72448    0.08189   1.00
C3       0.22977    0.72246    -0.08591   1.00
C3       0.27913    0.76555    0.08304   1.00
C3       0.28100    0.77020    -0.08336   1.00
H1       0.20136    0.71049    0.02763   1.00
H1       0.20979    0.70276    -0.03306   1.00
C5       0.31009    0.78994    0.02165   1.00
C5       0.30836    0.79378    -0.01998   1.00
H1       0.20063    0.70897    0.09549   1.00
H1       0.21093    0.70461    -0.10091   1.00
H1       0.29902    0.78019    0.09948   1.00
H1       0.29985    0.78743    -0.09848   1.00
C6       0.34248    0.80905    0.04485   1.00
C6       0.33427    0.82261    -0.04119   1.00
H2       0.35325    0.78845    0.06655   1.00
H2       0.31703    0.83789    -0.06310   1.00
H2       0.36835    0.81382    0.02714   1.00
H2       0.34320    0.84646    -0.02228   1.00
C6       0.33000    0.84871    0.06394   1.00
C6       0.37154    0.80334    -0.05942   1.00
H2       0.30110    0.84561    0.07708   1.00
H2       0.36348    0.77604    -0.07383   1.00
C6       0.35782    0.86667    0.09541   1.00
C6       0.39578    0.82820    -0.08911   1.00
H2       0.32633    0.87002    0.04051   1.00
H2       0.39077    0.79482    -0.03546   1.00
C6       0.35974    0.84100    0.13265   1.00
C6       0.37250    0.83630    -0.12708   1.00
C6       0.39962    0.87266    0.07926   1.00
C6       0.40903    0.86747    -0.07107   1.00
C6       0.34159    0.90720    0.10755   1.00
C6       0.43289    0.80484    -0.10054   1.00
H2       0.33060    0.83569    0.14442   1.00
H2       0.36217    0.80915    -0.14020   1.00
H2       0.37315    0.81281    0.12670   1.00
H2       0.34720    0.85471    -0.12154   1.00
H2       0.37701    0.85506    0.15541   1.00
H2       0.39054    0.85127    -0.14863   1.00
H2       0.41802    0.88773    0.10045   1.00
H2       0.42821    0.88330    -0.09098   1.00
H2       0.41343    0.84476    0.07275   1.00
H2       0.38406    0.88620    -0.06494   1.00
H2       0.39902    0.88998    0.05255   1.00
H2       0.42481    0.86263    -0.04385   1.00
H2       0.31220    0.90456    0.11958   1.00
H2       0.42515    0.77693    -0.11383   1.00
H2       0.35993    0.92084    0.12975   1.00
H2       0.45070    0.82093    -0.12149   1.00
H2       0.34027    0.92695    0.08261   1.00
H2       0.45099    0.79888    -0.07502   1.00
C4       0.75249    0.25410    0.48025   1.00
C4       0.75403    0.25424    0.52191   1.00
C3       0.72328    0.27468    0.45897   1.00
C3       0.72910    0.27817    0.54504   1.00
C3       0.78096    0.23266    0.45854   1.00
C3       0.78141    0.22974    0.54170   1.00
C2       0.75047    0.25540    0.39595   1.00
C2       0.75580    0.25314    0.60622   1.00
C3       0.72236    0.27552    0.41811   1.00
C3       0.72977    0.27754    0.58591   1.00
C3       0.77913    0.23445    0.41696   1.00
C3       0.78100    0.22980    0.58336   1.00
H1       0.70136    0.28951    0.47237   1.00
H1       0.70979    0.29724    0.53306   1.00
C5       0.81009    0.21006    0.47835   1.00
C5       0.80836    0.20622    0.51998   1.00
H1       0.70063    0.29103    0.40451   1.00
H1       0.71093    0.29539    0.60091   1.00
H1       0.79902    0.21981    0.40052   1.00
H1       0.79985    0.21257    0.59848   1.00
C6       0.84248    0.19095    0.45515   1.00
C6       0.83427    0.17739    0.54119   1.00
H2       0.85325    0.21155    0.43345   1.00
H2       0.81703    0.16211    0.56310   1.00
H2       0.86835    0.18618    0.47286   1.00
H2       0.84320    0.15354    0.52228   1.00
C6       0.83000    0.15129    0.43606   1.00
C6       0.87154    0.19666    0.55942   1.00
H2       0.80110    0.15439    0.42292   1.00
H2       0.86348    0.22396    0.57383   1.00
C6       0.85782    0.13333    0.40459   1.00
C6       0.89578    0.17180    0.58911   1.00
H2       0.82633    0.12998    0.45949   1.00
H2       0.89077    0.20518    0.53546   1.00
C6       0.85974    0.15900    0.36735   1.00
C6       0.87250    0.16370    0.62708   1.00
C6       0.89962    0.12734    0.42074   1.00
C6       0.90903    0.13253    0.57107   1.00
C6       0.84159    0.09280    0.39245   1.00
C6       0.93289    0.19516    0.60054   1.00
H2       0.83060    0.16431    0.35558   1.00
H2       0.86217    0.19085    0.64020   1.00
H2       0.87315    0.18719    0.37330   1.00
H2       0.84720    0.14529    0.62154   1.00
H2       0.87701    0.14494    0.34459   1.00
H2       0.89054    0.14873    0.64863   1.00
H2       0.91802    0.11227    0.39955   1.00
H2       0.92821    0.11670    0.59098   1.00
H2       0.91343    0.15524    0.42725   1.00
H2       0.88406    0.11380    0.56494   1.00
H2       0.89902    0.11002    0.44745   1.00
H2       0.92481    0.13737    0.54385   1.00
H2       0.81220    0.09544    0.38042   1.00
H2       0.92515    0.22307    0.61383   1.00
H2       0.85993    0.07916    0.37025   1.00
H2       0.95070    0.17907    0.62149   1.00
H2       0.84027    0.07305    0.41739   1.00
H2       0.95099    0.20112    0.57502   1.00
C4       0.75410    0.48025    0.25249   1.00
C4       0.75424    0.52191    0.25403   1.00
C3       0.77468    0.45897    0.22328   1.00
C3       0.77817    0.54504    0.22910   1.00
C3       0.73266    0.45854    0.28096   1.00
C3       0.72974    0.54170    0.28141   1.00
C2       0.75540    0.39595    0.25047   1.00
C2       0.75314    0.60622    0.25580   1.00
C3       0.77552    0.41811    0.22236   1.00
C3       0.77754    0.58591    0.22977   1.00
C3       0.73445    0.41696    0.27913   1.00
C3       0.72980    0.58336    0.28100   1.00
H1       0.78951    0.47237    0.20136   1.00
H1       0.79724    0.53306    0.20979   1.00
C5       0.71006    0.47835    0.31009   1.00
C5       0.70622    0.51998    0.30836   1.00
H1       0.79103    0.40451    0.20063   1.00
H1       0.79539    0.60091    0.21093   1.00
H1       0.71981    0.40052    0.29902   1.00
H1       0.71257    0.59848    0.29985   1.00
C6       0.69095    0.45515    0.34248   1.00
C6       0.67739    0.54119    0.33427   1.00
H2       0.71155    0.43345    0.35325   1.00
H2       0.66211    0.56310    0.31703   1.00
H2       0.68618    0.47286    0.36835   1.00
H2       0.65354    0.52228    0.34320   1.00
C6       0.65129    0.43606    0.33000   1.00
C6       0.69666    0.55942    0.37154   1.00
H2       0.65439    0.42292    0.30110   1.00
H2       0.72396    0.57383    0.36348   1.00
C6       0.63333    0.40459    0.35782   1.00
C6       0.67180    0.58911    0.39578   1.00
H2       0.62998    0.45949    0.32633   1.00
H2       0.70518    0.53546    0.39077   1.00
C6       0.65900    0.36735    0.35974   1.00
C6       0.66370    0.62708    0.37250   1.00
C6       0.62734    0.42074    0.39962   1.00
C6       0.63253    0.57107    0.40903   1.00
C6       0.59280    0.39245    0.34159   1.00
C6       0.69516    0.60054    0.43289   1.00
H2       0.66431    0.35558    0.33060   1.00
H2       0.69085    0.64020    0.36217   1.00
H2       0.68719    0.37330    0.37315   1.00
H2       0.64529    0.62154    0.34720   1.00
H2       0.64494    0.34459    0.37701   1.00
H2       0.64873    0.64863    0.39054   1.00
H2       0.61227    0.39955    0.41802   1.00
H2       0.61670    0.59098    0.42821   1.00
H2       0.65524    0.42725    0.41343   1.00
H2       0.61380    0.56494    0.38406   1.00
H2       0.61002    0.44745    0.39902   1.00
H2       0.63737    0.54385    0.42481   1.00
H2       0.59544    0.38042    0.31220   1.00
H2       0.72307    0.61383    0.42515   1.00
H2       0.57916    0.37025    0.35993   1.00
H2       0.67907    0.62149    0.45070   1.00
H2       0.57305    0.41739    0.34027   1.00
H2       0.70112    0.57502    0.45099   1.00
C4       0.51975    0.25249    0.24590   1.00
C4       0.47809    0.25403    0.24576   1.00
C3       0.54103    0.22328    0.22532   1.00
C3       0.45496    0.22910    0.22183   1.00
C3       0.54146    0.28096    0.26734   1.00
C3       0.45830    0.28141    0.27026   1.00
C2       0.60405    0.25047    0.24460   1.00
C2       0.39378    0.25580    0.24686   1.00
C3       0.58189    0.22236    0.22448   1.00
C3       0.41409    0.22977    0.22246   1.00
C3       0.58304    0.27913    0.26555   1.00
C3       0.41664    0.28100    0.27020   1.00
H1       0.52763    0.20136    0.21049   1.00
H1       0.46694    0.20979    0.20276   1.00
C5       0.52165    0.31009    0.28994   1.00
C5       0.48002    0.30836    0.29378   1.00
H1       0.59549    0.20063    0.20897   1.00
H1       0.39909    0.21093    0.20461   1.00
H1       0.59948    0.29902    0.28019   1.00
H1       0.40152    0.29985    0.28743   1.00
C6       0.54485    0.34248    0.30905   1.00
C6       0.45881    0.33427    0.32261   1.00
H2       0.56655    0.35325    0.28845   1.00
H2       0.43690    0.31703    0.33789   1.00
H2       0.52714    0.36835    0.31382   1.00
H2       0.47772    0.34320    0.34646   1.00
C6       0.56394    0.33000    0.34871   1.00
C6       0.44058    0.37154    0.30334   1.00
H2       0.57708    0.30110    0.34561   1.00
H2       0.42617    0.36348    0.27604   1.00
C6       0.59541    0.35782    0.36667   1.00
C6       0.41089    0.39578    0.32820   1.00
H2       0.54051    0.32633    0.37002   1.00
H2       0.46454    0.39077    0.29482   1.00
C6       0.63265    0.35974    0.34100   1.00
C6       0.37292    0.37250    0.33630   1.00
C6       0.57926    0.39962    0.37266   1.00
C6       0.42893    0.40903    0.36747   1.00
C6       0.60755    0.34159    0.40720   1.00
C6       0.39946    0.43289    0.30484   1.00
H2       0.64442    0.33060    0.33569   1.00
H2       0.35980    0.36217    0.30915   1.00
H2       0.62670    0.37315    0.31281   1.00
H2       0.37846    0.34720    0.35471   1.00
H2       0.65541    0.37701    0.35506   1.00
H2       0.35137    0.39054    0.35127   1.00
H2       0.60045    0.41802    0.38773   1.00
H2       0.40902    0.42821    0.38330   1.00
H2       0.57275    0.41343    0.34476   1.00
H2       0.43506    0.38406    0.38620   1.00
H2       0.55255    0.39902    0.38998   1.00
H2       0.45615    0.42481    0.36263   1.00
H2       0.61958    0.31220    0.40456   1.00
H2       0.38617    0.42515    0.27693   1.00
H2       0.62975    0.35993    0.42084   1.00
H2       0.37851    0.45070    0.32093   1.00
H2       0.58261    0.34027    0.42695   1.00
H2       0.42498    0.45099    0.29888   1.00
C4       0.98025    0.25249    0.25410   1.00
C4       1.02191    0.25403    0.25424   1.00
C3       0.95897    0.22328    0.27468   1.00
C3       1.04504    0.22910    0.27817   1.00
C3       0.95854    0.28096    0.23266   1.00
C3       1.04170    0.28141    0.22974   1.00
C2       0.89595    0.25047    0.25540   1.00
C2       1.10622    0.25580    0.25314   1.00
C3       0.91811    0.22236    0.27552   1.00
C3       1.08591    0.22977    0.27754   1.00
C3       0.91696    0.27913    0.23445   1.00
C3       1.08336    0.28100    0.22980   1.00
H1       0.97237    0.20136    0.28951   1.00
H1       1.03306    0.20979    0.29724   1.00
C5       0.97835    0.31009    0.21006   1.00
C5       1.01998    0.30836    0.20622   1.00
H1       0.90451    0.20063    0.29103   1.00
H1       1.10091    0.21093    0.29539   1.00
H1       0.90052    0.29902    0.21981   1.00
H1       1.09848    0.29985    0.21257   1.00
C6       0.95515    0.34248    0.19095   1.00
C6       1.04119    0.33427    0.17739   1.00
H2       0.93345    0.35325    0.21155   1.00
H2       1.06310    0.31703    0.16211   1.00
H2       0.97286    0.36835    0.18618   1.00
H2       1.02228    0.34320    0.15354   1.00
C6       0.93606    0.33000    0.15129   1.00
C6       1.05942    0.37154    0.19666   1.00
H2       0.92292    0.30110    0.15439   1.00
H2       1.07383    0.36348    0.22396   1.00
C6       0.90459    0.35782    0.13333   1.00
C6       1.08911    0.39578    0.17180   1.00
H2       0.95949    0.32633    0.12998   1.00
H2       1.03546    0.39077    0.20518   1.00
C6       0.86735    0.35974    0.15900   1.00
C6       1.12708    0.37250    0.16370   1.00
C6       0.92074    0.39962    0.12734   1.00
C6       1.07107    0.40903    0.13253   1.00
C6       0.89245    0.34159    0.09280   1.00
C6       1.10054    0.43289    0.19516   1.00
H2       0.85558    0.33060    0.16431   1.00
H2       1.14020    0.36217    0.19085   1.00
H2       0.87330    0.37315    0.18719   1.00
H2       1.12154    0.34720    0.14529   1.00
H2       0.84459    0.37701    0.14494   1.00
H2       1.14863    0.39054    0.14873   1.00
H2       0.89955    0.41802    0.11227   1.00
H2       1.09098    0.42821    0.11670   1.00
H2       0.92725    0.41343    0.15524   1.00
H2       1.06494    0.38406    0.11380   1.00
H2       0.94745    0.39902    0.11002   1.00
H2       1.04385    0.42481    0.13737   1.00
H2       0.88042    0.31220    0.09544   1.00
H2       1.11383    0.42515    0.22307   1.00
H2       0.87025    0.35993    0.07916   1.00
H2       1.12149    0.45070    0.17907   1.00
H2       0.91739    0.34027    0.07305   1.00
H2       1.07502    0.45099    0.20112   1.00
C4       0.74590    0.01975    0.25249   1.00
C4       0.74576    -0.02191   0.25403   1.00
C3       0.72532    0.04103    0.22328   1.00
C3       0.72183    -0.04504   0.22910   1.00
C3       0.76734    0.04146    0.28096   1.00
C3       0.77026    -0.04170   0.28141   1.00
C2       0.74460    0.10405    0.25047   1.00
C2       0.74686    -0.10622   0.25580   1.00
C3       0.72448    0.08189    0.22236   1.00
C3       0.72246    -0.08591   0.22977   1.00
C3       0.76555    0.08304    0.27913   1.00
C3       0.77020    -0.08336   0.28100   1.00
H1       0.71049    0.02763    0.20136   1.00
H1       0.70276    -0.03306   0.20979   1.00
C5       0.78994    0.02165    0.31009   1.00
C5       0.79378    -0.01998   0.30836   1.00
H1       0.70897    0.09549    0.20063   1.00
H1       0.70461    -0.10091   0.21093   1.00
H1       0.78019    0.09948    0.29902   1.00
H1       0.78743    -0.09848   0.29985   1.00
C6       0.80905    0.04485    0.34248   1.00
C6       0.82261    -0.04119   0.33427   1.00
H2       0.78845    0.06655    0.35325   1.00
H2       0.83789    -0.06310   0.31703   1.00
H2       0.81382    0.02714    0.36835   1.00
H2       0.84646    -0.02228   0.34320   1.00
C6       0.84871    0.06394    0.33000   1.00
C6       0.80334    -0.05942   0.37154   1.00
H2       0.84561    0.07708    0.30110   1.00
H2       0.77604    -0.07383   0.36348   1.00
C6       0.86667    0.09541    0.35782   1.00
C6       0.82820    -0.08911   0.39578   1.00
H2       0.87002    0.04051    0.32633   1.00
H2       0.79482    -0.03546   0.39077   1.00
C6       0.84100    0.13265    0.35974   1.00
C6       0.83630    -0.12708   0.37250   1.00
C6       0.87266    0.07926    0.39962   1.00
C6       0.86747    -0.07107   0.40903   1.00
C6       0.90720    0.10755    0.34159   1.00
C6       0.80484    -0.10054   0.43289   1.00
H2       0.83569    0.14442    0.33060   1.00
H2       0.80915    -0.14020   0.36217   1.00
H2       0.81281    0.12670    0.37315   1.00
H2       0.85471    -0.12154   0.34720   1.00
H2       0.85506    0.15541    0.37701   1.00
H2       0.85127    -0.14863   0.39054   1.00
H2       0.88773    0.10045    0.41802   1.00
H2       0.88330    -0.09098   0.42821   1.00
H2       0.84476    0.07275    0.41343   1.00
H2       0.88620    -0.06494   0.38406   1.00
H2       0.88998    0.05255    0.39902   1.00
H2       0.86263    -0.04385   0.42481   1.00
H2       0.90456    0.11958    0.31220   1.00
H2       0.77693    -0.11383   0.42515   1.00
H2       0.92084    0.12975    0.35993   1.00
H2       0.82093    -0.12149   0.45070   1.00
H2       0.92695    0.08261    0.34027   1.00
H2       0.79888    -0.07502   0.45099   1.00
C4       0.75249    0.24590    0.01975   1.00
C4       0.75403    0.24576    -0.02191   1.00
C3       0.72328    0.22532    0.04103   1.00
C3       0.72910    0.22183    -0.04504   1.00
C3       0.78096    0.26734    0.04146   1.00
C3       0.78141    0.27026    -0.04170   1.00
C2       0.75047    0.24460    0.10405   1.00
C2       0.75580    0.24686    -0.10622   1.00
C3       0.72236    0.22448    0.08189   1.00
C3       0.72977    0.22246    -0.08591   1.00
C3       0.77913    0.26555    0.08304   1.00
C3       0.78100    0.27020    -0.08336   1.00
H1       0.70136    0.21049    0.02763   1.00
H1       0.70979    0.20276    -0.03306   1.00
C5       0.81009    0.28994    0.02165   1.00
C5       0.80836    0.29378    -0.01998   1.00
H1       0.70063    0.20897    0.09549   1.00
H1       0.71093    0.20461    -0.10091   1.00
H1       0.79902    0.28019    0.09948   1.00
H1       0.79985    0.28743    -0.09848   1.00
C6       0.84248    0.30905    0.04485   1.00
C6       0.83427    0.32261    -0.04119   1.00
H2       0.85325    0.28845    0.06655   1.00
H2       0.81703    0.33789    -0.06310   1.00
H2       0.86835    0.31382    0.02714   1.00
H2       0.84320    0.34646    -0.02228   1.00
C6       0.83000    0.34871    0.06394   1.00
C6       0.87154    0.30334    -0.05942   1.00
H2       0.80110    0.34561    0.07708   1.00
H2       0.86348    0.27604    -0.07383   1.00
C6       0.85782    0.36667    0.09541   1.00
C6       0.89578    0.32820    -0.08911   1.00
H2       0.82633    0.37002    0.04051   1.00
H2       0.89077    0.29482    -0.03546   1.00
C6       0.85974    0.34100    0.13265   1.00
C6       0.87250    0.33630    -0.12708   1.00
C6       0.89962    0.37266    0.07926   1.00
C6       0.90903    0.36747    -0.07107   1.00
C6       0.84159    0.40720    0.10755   1.00
C6       0.93289    0.30484    -0.10054   1.00
H2       0.83060    0.33569    0.14442   1.00
H2       0.86217    0.30915    -0.14020   1.00
H2       0.87315    0.31281    0.12670   1.00
H2       0.84720    0.35471    -0.12154   1.00
H2       0.87701    0.35506    0.15541   1.00
H2       0.89054    0.35127    -0.14863   1.00
H2       0.91802    0.38773    0.10045   1.00
H2       0.92821    0.38330    -0.09098   1.00
H2       0.91343    0.34476    0.07275   1.00
H2       0.88406    0.38620    -0.06494   1.00
H2       0.89902    0.38998    0.05255   1.00
H2       0.92481    0.36263    -0.04385   1.00
H2       0.81220    0.40456    0.11958   1.00
H2       0.92515    0.27693    -0.11383   1.00
H2       0.85993    0.42084    0.12975   1.00
H2       0.95070    0.32093    -0.12149   1.00
H2       0.84027    0.42695    0.08261   1.00
H2       0.95099    0.29888    -0.07502   1.00
C4       1.00249    1.00410    1.23025   1.00
C4       1.00403    1.00424    1.27191   1.00
C3       0.97328    1.02468    1.20897   1.00
C3       0.97910    1.02817    1.29504   1.00
C3       1.03096    0.98266    1.20854   1.00
C3       1.03141    0.97974    1.29170   1.00
C2       1.00047    1.00540    1.14595   1.00
C2       1.00580    1.00314    1.35622   1.00
C3       0.97236    1.02552    1.16811   1.00
C3       0.97977    1.02754    1.33591   1.00
C3       1.02913    0.98445    1.16696   1.00
C3       1.03100    0.97980    1.33336   1.00
H1       0.95136    1.03951    1.22237   1.00
H1       0.95979    1.04724    1.28306   1.00
C5       1.06009    0.96006    1.22835   1.00
C5       1.05836    0.95622    1.26998   1.00
H1       0.95063    1.04103    1.15451   1.00
H1       0.96093    1.04539    1.35091   1.00
H1       1.04902    0.96981    1.15052   1.00
H1       1.04985    0.96257    1.34848   1.00
C6       1.09248    0.94095    1.20515   1.00
C6       1.08427    0.92739    1.29119   1.00
H2       1.10325    0.96155    1.18345   1.00
H2       1.06703    0.91211    1.31310   1.00
H2       1.11835    0.93618    1.22286   1.00
H2       1.09320    0.90354    1.27228   1.00
C6       1.08000    0.90129    1.18606   1.00
C6       1.12154    0.94666    1.30942   1.00
H2       1.05110    0.90439    1.17292   1.00
H2       1.11348    0.97396    1.32383   1.00
C6       1.10782    0.88333    1.15459   1.00
C6       1.14578    0.92180    1.33911   1.00
H2       1.07633    0.87998    1.20949   1.00
H2       1.14077    0.95518    1.28546   1.00
C6       1.10974    0.90900    1.11735   1.00
C6       1.12250    0.91370    1.37708   1.00
C6       1.14962    0.87734    1.17074   1.00
C6       1.15903    0.88253    1.32107   1.00
C6       1.09159    0.84280    1.14245   1.00
C6       1.18289    0.94516    1.35054   1.00
H2       1.08060    0.91431    1.10558   1.00
H2       1.11217    0.94085    1.39020   1.00
H2       1.12315    0.93719    1.12330   1.00
H2       1.09720    0.89529    1.37154   1.00
H2       1.12701    0.89494    1.09459   1.00
H2       1.14054    0.89873    1.39863   1.00
H2       1.16802    0.86227    1.14955   1.00
H2       1.17821    0.86670    1.34098   1.00
H2       1.16343    0.90524    1.17725   1.00
H2       1.13406    0.86380    1.31494   1.00
H2       1.14902    0.86002    1.19745   1.00
H2       1.17481    0.88737    1.29385   1.00
H2       1.06220    0.84544    1.13042   1.00
H2       1.17515    0.97307    1.36383   1.00
H2       1.10993    0.82916    1.12025   1.00
H2       1.20070    0.92907    1.37149   1.00
H2       1.09027    0.82305    1.16739   1.00
H2       1.20099    0.95112    1.32502   1.00
C4       1.00410    1.23025    1.00249   1.00
C4       1.00424    1.27191    1.00403   1.00
C3       1.02468    1.20897    0.97328   1.00
C3       1.02817    1.29504    0.97910   1.00
C3       0.98266    1.20854    1.03096   1.00
C3       0.97974    1.29170    1.03141   1.00
C2       1.00540    1.14595    1.00047   1.00
C2       1.00314    1.35622    1.00580   1.00
C3       1.02552    1.16811    0.97236   1.00
C3       1.02754    1.33591    0.97977   1.00
C3       0.98445    1.16696    1.02913   1.00
C3       0.97980    1.33336    1.03100   1.00
H1       1.03951    1.22237    0.95136   1.00
H1       1.04724    1.28306    0.95979   1.00
C5       0.96006    1.22835    1.06009   1.00
C5       0.95622    1.26998    1.05836   1.00
H1       1.04103    1.15451    0.95063   1.00
H1       1.04539    1.35091    0.96093   1.00
H1       0.96981    1.15052    1.04902   1.00
H1       0.96257    1.34848    1.04985   1.00
C6       0.94095    1.20515    1.09248   1.00
C6       0.92739    1.29119    1.08427   1.00
H2       0.96155    1.18345    1.10325   1.00
H2       0.91211    1.31310    1.06703   1.00
H2       0.93618    1.22286    1.11835   1.00
H2       0.90354    1.27228    1.09320   1.00
C6       0.90129    1.18606    1.08000   1.00
C6       0.94666    1.30942    1.12154   1.00
H2       0.90439    1.17292    1.05110   1.00
H2       0.97396    1.32383    1.11348   1.00
C6       0.88333    1.15459    1.10782   1.00
C6       0.92180    1.33911    1.14578   1.00
H2       0.87998    1.20949    1.07633   1.00
H2       0.95518    1.28546    1.14077   1.00
C6       0.90900    1.11735    1.10974   1.00
C6       0.91370    1.37708    1.12250   1.00
C6       0.87734    1.17074    1.14962   1.00
C6       0.88253    1.32107    1.15903   1.00
C6       0.84280    1.14245    1.09159   1.00
C6       0.94516    1.35054    1.18289   1.00
H2       0.91431    1.10558    1.08060   1.00
H2       0.94085    1.39020    1.11217   1.00
H2       0.93719    1.12330    1.12315   1.00
H2       0.89529    1.37154    1.09720   1.00
H2       0.89494    1.09459    1.12701   1.00
H2       0.89873    1.39863    1.14054   1.00
H2       0.86227    1.14955    1.16802   1.00
H2       0.86670    1.34098    1.17821   1.00
H2       0.90524    1.17725    1.16343   1.00
H2       0.86380    1.31494    1.13406   1.00
H2       0.86002    1.19745    1.14902   1.00
H2       0.88737    1.29385    1.17481   1.00
H2       0.84544    1.13042    1.06220   1.00
H2       0.97307    1.36383    1.17515   1.00
H2       0.82916    1.12025    1.10993   1.00
H2       0.92907    1.37149    1.20070   1.00
H2       0.82305    1.16739    1.09027   1.00
H2       0.95112    1.32502    1.20099   1.00
C4       0.76975    1.00249    0.99590   1.00
C4       0.72809    1.00403    0.99576   1.00
C3       0.79103    0.97328    0.97532   1.00
C3       0.70496    0.97910    0.97183   1.00
C3       0.79146    1.03096    1.01734   1.00
C3       0.70830    1.03141    1.02026   1.00
C2       0.85405    1.00047    0.99460   1.00
C2       0.64378    1.00580    0.99686   1.00
C3       0.83189    0.97236    0.97448   1.00
C3       0.66409    0.97977    0.97246   1.00
C3       0.83304    1.02913    1.01555   1.00
C3       0.66664    1.03100    1.02020   1.00
H1       0.77763    0.95136    0.96049   1.00
H1       0.71694    0.95979    0.95276   1.00
C5       0.77165    1.06009    1.03994   1.00
C5       0.73002    1.05836    1.04378   1.00
H1       0.84549    0.95063    0.95897   1.00
H1       0.64909    0.96093    0.95461   1.00
H1       0.84948    1.04902    1.03019   1.00
H1       0.65152    1.04985    1.03743   1.00
C6       0.79485    1.09248    1.05905   1.00
C6       0.70881    1.08427    1.07261   1.00
H2       0.81655    1.10325    1.03845   1.00
H2       0.68690    1.06703    1.08789   1.00
H2       0.77714    1.11835    1.06382   1.00
H2       0.72772    1.09320    1.09646   1.00
C6       0.81394    1.08000    1.09871   1.00
C6       0.69058    1.12154    1.05334   1.00
H2       0.82708    1.05110    1.09561   1.00
H2       0.67617    1.11348    1.02604   1.00
C6       0.84541    1.10782    1.11667   1.00
C6       0.66089    1.14578    1.07820   1.00
H2       0.79051    1.07633    1.12002   1.00
H2       0.71454    1.14077    1.04482   1.00
C6       0.88265    1.10974    1.09100   1.00
C6       0.62292    1.12250    1.08630   1.00
C6       0.82926    1.14962    1.12266   1.00
C6       0.67893    1.15903    1.11747   1.00
C6       0.85755    1.09159    1.15720   1.00
C6       0.64946    1.18289    1.05484   1.00
H2       0.89442    1.08060    1.08569   1.00
H2       0.60980    1.11217    1.05915   1.00
H2       0.87670    1.12315    1.06281   1.00
H2       0.62846    1.09720    1.10471   1.00
H2       0.90541    1.12701    1.10506   1.00
H2       0.60137    1.14054    1.10127   1.00
H2       0.85045    1.16802    1.13773   1.00
H2       0.65902    1.17821    1.13330   1.00
H2       0.82275    1.16343    1.09476   1.00
H2       0.68506    1.13406    1.13620   1.00
H2       0.80255    1.14902    1.13998   1.00
H2       0.70615    1.17481    1.11263   1.00
H2       0.86958    1.06220    1.15456   1.00
H2       0.63617    1.17515    1.02693   1.00
H2       0.87975    1.10993    1.17084   1.00
H2       0.62851    1.20070    1.07093   1.00
H2       0.83261    1.09027    1.17695   1.00
H2       0.67498    1.20099    1.04888   1.00
C4       1.23025    1.00249    1.00410   1.00
C4       1.27191    1.00403    1.00424   1.00
C3       1.20897    0.97328    1.02468   1.00
C3       1.29504    0.97910    1.02817   1.00
C3       1.20854    1.03096    0.98266   1.00
C3       1.29170    1.03141    0.97974   1.00
C2       1.14595    1.00047    1.00540   1.00
C2       1.35622    1.00580    1.00314   1.00
C3       1.16811    0.97236    1.02552   1.00
C3       1.33591    0.97977    1.02754   1.00
C3       1.16696    1.02913    0.98445   1.00
C3       1.33336    1.03100    0.97980   1.00
H1       1.22237    0.95136    1.03951   1.00
H1       1.28306    0.95979    1.04724   1.00
C5       1.22835    1.06009    0.96006   1.00
C5       1.26998    1.05836    0.95622   1.00
H1       1.15451    0.95063    1.04103   1.00
H1       1.35091    0.96093    1.04539   1.00
H1       1.15052    1.04902    0.96981   1.00
H1       1.34848    1.04985    0.96257   1.00
C6       1.20515    1.09248    0.94095   1.00
C6       1.29119    1.08427    0.92739   1.00
H2       1.18345    1.10325    0.96155   1.00
H2       1.31310    1.06703    0.91211   1.00
H2       1.22286    1.11835    0.93618   1.00
H2       1.27228    1.09320    0.90354   1.00
C6       1.18606    1.08000    0.90129   1.00
C6       1.30942    1.12154    0.94666   1.00
H2       1.17292    1.05110    0.90439   1.00
H2       1.32383    1.11348    0.97396   1.00
C6       1.15459    1.10782    0.88333   1.00
C6       1.33911    1.14578    0.92180   1.00
H2       1.20949    1.07633    0.87998   1.00
H2       1.28546    1.14077    0.95518   1.00
C6       1.11735    1.10974    0.90900   1.00
C6       1.37708    1.12250    0.91370   1.00
C6       1.17074    1.14962    0.87734   1.00
C6       1.32107    1.15903    0.88253   1.00
C6       1.14245    1.09159    0.84280   1.00
C6       1.35054    1.18289    0.94516   1.00
H2       1.10558    1.08060    0.91431   1.00
H2       1.39020    1.11217    0.94085   1.00
H2       1.12330    1.12315    0.93719   1.00
H2       1.37154    1.09720    0.89529   1.00
H2       1.09459    1.12701    0.89494   1.00
H2       1.39863    1.14054    0.89873   1.00
H2       1.14955    1.16802    0.86227   1.00
H2       1.34098    1.17821    0.86670   1.00
H2       1.17725    1.16343    0.90524   1.00
H2       1.31494    1.13406    0.86380   1.00
H2       1.19745    1.14902    0.86002   1.00
H2       1.29385    1.17481    0.88737   1.00
H2       1.13042    1.06220    0.84544   1.00
H2       1.36383    1.17515    0.97307   1.00
H2       1.12025    1.10993    0.82916   1.00
H2       1.37149    1.20070    0.92907   1.00
H2       1.16739    1.09027    0.82305   1.00
H2       1.32502    1.20099    0.95112   1.00
C4       0.99590    0.76975    1.00249   1.00
C4       0.99576    0.72809    1.00403   1.00
C3       0.97532    0.79103    0.97328   1.00
C3       0.97183    0.70496    0.97910   1.00
C3       1.01734    0.79146    1.03096   1.00
C3       1.02026    0.70830    1.03141   1.00
C2       0.99460    0.85405    1.00047   1.00
C2       0.99686    0.64378    1.00580   1.00
C3       0.97448    0.83189    0.97236   1.00
C3       0.97246    0.66409    0.97977   1.00
C3       1.01555    0.83304    1.02913   1.00
C3       1.02020    0.66664    1.03100   1.00
H1       0.96049    0.77763    0.95136   1.00
H1       0.95276    0.71694    0.95979   1.00
C5       1.03994    0.77165    1.06009   1.00
C5       1.04378    0.73002    1.05836   1.00
H1       0.95897    0.84549    0.95063   1.00
H1       0.95461    0.64909    0.96093   1.00
H1       1.03019    0.84948    1.04902   1.00
H1       1.03743    0.65152    1.04985   1.00
C6       1.05905    0.79485    1.09248   1.00
C6       1.07261    0.70881    1.08427   1.00
H2       1.03845    0.81655    1.10325   1.00
H2       1.08789    0.68690    1.06703   1.00
H2       1.06382    0.77714    1.11835   1.00
H2       1.09646    0.72772    1.09320   1.00
C6       1.09871    0.81394    1.08000   1.00
C6       1.05334    0.69058    1.12154   1.00
H2       1.09561    0.82708    1.05110   1.00
H2       1.02604    0.67617    1.11348   1.00
C6       1.11667    0.84541    1.10782   1.00
C6       1.07820    0.66089    1.14578   1.00
H2       1.12002    0.79051    1.07633   1.00
H2       1.04482    0.71454    1.14077   1.00
C6       1.09100    0.88265    1.10974   1.00
C6       1.08630    0.62292    1.12250   1.00
C6       1.12266    0.82926    1.14962   1.00
C6       1.11747    0.67893    1.15903   1.00
C6       1.15720    0.85755    1.09159   1.00
C6       1.05484    0.64946    1.18289   1.00
H2       1.08569    0.89442    1.08060   1.00
H2       1.05915    0.60980    1.11217   1.00
H2       1.06281    0.87670    1.12315   1.00
H2       1.10471    0.62846    1.09720   1.00
H2       1.10506    0.90541    1.12701   1.00
H2       1.10127    0.60137    1.14054   1.00
H2       1.13773    0.85045    1.16802   1.00
H2       1.13330    0.65902    1.17821   1.00
H2       1.09476    0.82275    1.16343   1.00
H2       1.13620    0.68506    1.13406   1.00
H2       1.13998    0.80255    1.14902   1.00
H2       1.11263    0.70615    1.17481   1.00
H2       1.15456    0.86958    1.06220   1.00
H2       1.02693    0.63617    1.17515   1.00
H2       1.17084    0.87975    1.10993   1.00
H2       1.07093    0.62851    1.20070   1.00
H2       1.17695    0.83261    1.09027   1.00
H2       1.04888    0.67498    1.20099   1.00
C4       1.00249    0.99590    0.76975   1.00
C4       1.00403    0.99576    0.72809   1.00
C3       0.97328    0.97532    0.79103   1.00
C3       0.97910    0.97183    0.70496   1.00
C3       1.03096    1.01734    0.79146   1.00
C3       1.03141    1.02026    0.70830   1.00
C2       1.00047    0.99460    0.85405   1.00
C2       1.00580    0.99686    0.64378   1.00
C3       0.97236    0.97448    0.83189   1.00
C3       0.97977    0.97246    0.66409   1.00
C3       1.02913    1.01555    0.83304   1.00
C3       1.03100    1.02020    0.66664   1.00
H1       0.95136    0.96049    0.77763   1.00
H1       0.95979    0.95276    0.71694   1.00
C5       1.06009    1.03994    0.77165   1.00
C5       1.05836    1.04378    0.73002   1.00
H1       0.95063    0.95897    0.84549   1.00
H1       0.96093    0.95461    0.64909   1.00
H1       1.04902    1.03019    0.84948   1.00
H1       1.04985    1.03743    0.65152   1.00
C6       1.09248    1.05905    0.79485   1.00
C6       1.08427    1.07261    0.70881   1.00
H2       1.10325    1.03845    0.81655   1.00
H2       1.06703    1.08789    0.68690   1.00
H2       1.11835    1.06382    0.77714   1.00
H2       1.09320    1.09646    0.72772   1.00
C6       1.08000    1.09871    0.81394   1.00
C6       1.12154    1.05334    0.69058   1.00
H2       1.05110    1.09561    0.82708   1.00
H2       1.11348    1.02604    0.67617   1.00
C6       1.10782    1.11667    0.84541   1.00
C6       1.14578    1.07820    0.66089   1.00
H2       1.07633    1.12002    0.79051   1.00
H2       1.14077    1.04482    0.71454   1.00
C6       1.10974    1.09100    0.88265   1.00
C6       1.12250    1.08630    0.62292   1.00
C6       1.14962    1.12266    0.82926   1.00
C6       1.15903    1.11747    0.67893   1.00
C6       1.09159    1.15720    0.85755   1.00
C6       1.18289    1.05484    0.64946   1.00
H2       1.08060    1.08569    0.89442   1.00
H2       1.11217    1.05915    0.60980   1.00
H2       1.12315    1.06281    0.87670   1.00
H2       1.09720    1.10471    0.62846   1.00
H2       1.12701    1.10506    0.90541   1.00
H2       1.14054    1.10127    0.60137   1.00
H2       1.16802    1.13773    0.85045   1.00
H2       1.17821    1.13330    0.65902   1.00
H2       1.16343    1.09476    0.82275   1.00
H2       1.13406    1.13620    0.68506   1.00
H2       1.14902    1.13998    0.80255   1.00
H2       1.17481    1.11263    0.70615   1.00
H2       1.06220    1.15456    0.86958   1.00
H2       1.17515    1.02693    0.63617   1.00
H2       1.10993    1.17084    0.87975   1.00
H2       1.20070    1.07093    0.62851   1.00
H2       1.09027    1.17695    0.83261   1.00
H2       1.20099    1.04888    0.67498   1.00
C4       0.50249    0.50410    1.23025   1.00
C4       0.50403    0.50424    1.27191   1.00
C3       0.47328    0.52468    1.20897   1.00
C3       0.47910    0.52817    1.29504   1.00
C3       0.53096    0.48266    1.20854   1.00
C3       0.53141    0.47974    1.29170   1.00
C2       0.50047    0.50540    1.14595   1.00
C2       0.50580    0.50314    1.35622   1.00
C3       0.47236    0.52552    1.16811   1.00
C3       0.47977    0.52754    1.33591   1.00
C3       0.52913    0.48445    1.16696   1.00
C3       0.53100    0.47980    1.33336   1.00
H1       0.45136    0.53951    1.22237   1.00
H1       0.45979    0.54724    1.28306   1.00
C5       0.56009    0.46006    1.22835   1.00
C5       0.55836    0.45622    1.26998   1.00
H1       0.45063    0.54103    1.15451   1.00
H1       0.46093    0.54539    1.35091   1.00
H1       0.54902    0.46981    1.15052   1.00
H1       0.54985    0.46257    1.34848   1.00
C6       0.59248    0.44095    1.20515   1.00
C6       0.58427    0.42739    1.29119   1.00
H2       0.60325    0.46155    1.18345   1.00
H2       0.56703    0.41211    1.31310   1.00
H2       0.61835    0.43618    1.22286   1.00
H2       0.59320    0.40354    1.27228   1.00
C6       0.58000    0.40129    1.18606   1.00
C6       0.62154    0.44666    1.30942   1.00
H2       0.55110    0.40439    1.17292   1.00
H2       0.61348    0.47396    1.32383   1.00
C6       0.60782    0.38333    1.15459   1.00
C6       0.64578    0.42180    1.33911   1.00
H2       0.57633    0.37998    1.20949   1.00
H2       0.64077    0.45518    1.28546   1.00
C6       0.60974    0.40900    1.11735   1.00
C6       0.62250    0.41370    1.37708   1.00
C6       0.64962    0.37734    1.17074   1.00
C6       0.65903    0.38253    1.32107   1.00
C6       0.59159    0.34280    1.14245   1.00
C6       0.68289    0.44516    1.35054   1.00
H2       0.58060    0.41431    1.10558   1.00
H2       0.61217    0.44085    1.39020   1.00
H2       0.62315    0.43719    1.12330   1.00
H2       0.59720    0.39529    1.37154   1.00
H2       0.62701    0.39494    1.09459   1.00
H2       0.64054    0.39873    1.39863   1.00
H2       0.66802    0.36227    1.14955   1.00
H2       0.67821    0.36670    1.34098   1.00
H2       0.66343    0.40524    1.17725   1.00
H2       0.63406    0.36380    1.31494   1.00
H2       0.64902    0.36002    1.19745   1.00
H2       0.67481    0.38737    1.29385   1.00
H2       0.56220    0.34544    1.13042   1.00
H2       0.67515    0.47307    1.36383   1.00
H2       0.60993    0.32916    1.12025   1.00
H2       0.70070    0.42907    1.37149   1.00
H2       0.59027    0.32305    1.16739   1.00
H2       0.70099    0.45112    1.32502   1.00
C4       0.50410    0.73025    1.00249   1.00
C4       0.50424    0.77191    1.00403   1.00
C3       0.52468    0.70897    0.97328   1.00
C3       0.52817    0.79504    0.97910   1.00
C3       0.48266    0.70854    1.03096   1.00
C3       0.47974    0.79170    1.03141   1.00
C2       0.50540    0.64595    1.00047   1.00
C2       0.50314    0.85622    1.00580   1.00
C3       0.52552    0.66811    0.97236   1.00
C3       0.52754    0.83591    0.97977   1.00
C3       0.48445    0.66696    1.02913   1.00
C3       0.47980    0.83336    1.03100   1.00
H1       0.53951    0.72237    0.95136   1.00
H1       0.54724    0.78306    0.95979   1.00
C5       0.46006    0.72835    1.06009   1.00
C5       0.45622    0.76998    1.05836   1.00
H1       0.54103    0.65451    0.95063   1.00
H1       0.54539    0.85091    0.96093   1.00
H1       0.46981    0.65052    1.04902   1.00
H1       0.46257    0.84848    1.04985   1.00
C6       0.44095    0.70515    1.09248   1.00
C6       0.42739    0.79119    1.08427   1.00
H2       0.46155    0.68345    1.10325   1.00
H2       0.41211    0.81310    1.06703   1.00
H2       0.43618    0.72286    1.11835   1.00
H2       0.40354    0.77228    1.09320   1.00
C6       0.40129    0.68606    1.08000   1.00
C6       0.44666    0.80942    1.12154   1.00
H2       0.40439    0.67292    1.05110   1.00
H2       0.47396    0.82383    1.11348   1.00
C6       0.38333    0.65459    1.10782   1.00
C6       0.42180    0.83911    1.14578   1.00
H2       0.37998    0.70949    1.07633   1.00
H2       0.45518    0.78546    1.14077   1.00
C6       0.40900    0.61735    1.10974   1.00
C6       0.41370    0.87708    1.12250   1.00
C6       0.37734    0.67074    1.14962   1.00
C6       0.38253    0.82107    1.15903   1.00
C6       0.34280    0.64245    1.09159   1.00
C6       0.44516    0.85054    1.18289   1.00
H2       0.41431    0.60558    1.08060   1.00
H2       0.44085    0.89020    1.11217   1.00
H2       0.43719    0.62330    1.12315   1.00
H2       0.39529    0.87154    1.09720   1.00
H2       0.39494    0.59459    1.12701   1.00
H2       0.39873    0.89863    1.14054   1.00
H2       0.36227    0.64955    1.16802   1.00
H2       0.36670    0.84098    1.17821   1.00
H2       0.40524    0.67725    1.16343   1.00
H2       0.36380    0.81494    1.13406   1.00
H2       0.36002    0.69745    1.14902   1.00
H2       0.38737    0.79385    1.17481   1.00
H2       0.34544    0.63042    1.06220   1.00
H2       0.47307    0.86383    1.17515   1.00
H2       0.32916    0.62025    1.10993   1.00
H2       0.42907    0.87149    1.20070   1.00
H2       0.32305    0.66739    1.09027   1.00
H2       0.45112    0.82502    1.20099   1.00
C4       0.26975    0.50249    0.99590   1.00
C4       0.22809    0.50403    0.99576   1.00
C3       0.29103    0.47328    0.97532   1.00
C3       0.20496    0.47910    0.97183   1.00
C3       0.29146    0.53096    1.01734   1.00
C3       0.20830    0.53141    1.02026   1.00
C2       0.35405    0.50047    0.99460   1.00
C2       0.14378    0.50580    0.99686   1.00
C3       0.33189    0.47236    0.97448   1.00
C3       0.16409    0.47977    0.97246   1.00
C3       0.33304    0.52913    1.01555   1.00
C3       0.16664    0.53100    1.02020   1.00
H1       0.27763    0.45136    0.96049   1.00
H1       0.21694    0.45979    0.95276   1.00
C5       0.27165    0.56009    1.03994   1.00
C5       0.23002    0.55836    1.04378   1.00
H1       0.34549    0.45063    0.95897   1.00
H1       0.14909    0.46093    0.95461   1.00
H1       0.34948    0.54902    1.03019   1.00
H1       0.15152    0.54985    1.03743   1.00
C6       0.29485    0.59248    1.05905   1.00
C6       0.20881    0.58427    1.07261   1.00
H2       0.31655    0.60325    1.03845   1.00
H2       0.18690    0.56703    1.08789   1.00
H2       0.27714    0.61835    1.06382   1.00
H2       0.22772    0.59320    1.09646   1.00
C6       0.31394    0.58000    1.09871   1.00
C6       0.19058    0.62154    1.05334   1.00
H2       0.32708    0.55110    1.09561   1.00
H2       0.17617    0.61348    1.02604   1.00
C6       0.34541    0.60782    1.11667   1.00
C6       0.16089    0.64578    1.07820   1.00
H2       0.29051    0.57633    1.12002   1.00
H2       0.21454    0.64077    1.04482   1.00
C6       0.38265    0.60974    1.09100   1.00
C6       0.12292    0.62250    1.08630   1.00
C6       0.32926    0.64962    1.12266   1.00
C6       0.17893    0.65903    1.11747   1.00
C6       0.35755    0.59159    1.15720   1.00
C6       0.14946    0.68289    1.05484   1.00
H2       0.39442    0.58060    1.08569   1.00
H2       0.10980    0.61217    1.05915   1.00
H2       0.37670    0.62315    1.06281   1.00
H2       0.12846    0.59720    1.10471   1.00
H2       0.40541    0.62701    1.10506   1.00
H2       0.10137    0.64054    1.10127   1.00
H2       0.35045    0.66802    1.13773   1.00
H2       0.15902    0.67821    1.13330   1.00
H2       0.32275    0.66343    1.09476   1.00
H2       0.18506    0.63406    1.13620   1.00
H2       0.30255    0.64902    1.13998   1.00
H2       0.20615    0.67481    1.11263   1.00
H2       0.36958    0.56220    1.15456   1.00
H2       0.13617    0.67515    1.02693   1.00
H2       0.37975    0.60993    1.17084   1.00
H2       0.12851    0.70070    1.07093   1.00
H2       0.33261    0.59027    1.17695   1.00
H2       0.17498    0.70099    1.04888   1.00
C4       0.73025    0.50249    1.00410   1.00
C4       0.77191    0.50403    1.00424   1.00
C3       0.70897    0.47328    1.02468   1.00
C3       0.79504    0.47910    1.02817   1.00
C3       0.70854    0.53096    0.98266   1.00
C3       0.79170    0.53141    0.97974   1.00
C2       0.64595    0.50047    1.00540   1.00
C2       0.85622    0.50580    1.00314   1.00
C3       0.66811    0.47236    1.02552   1.00
C3       0.83591    0.47977    1.02754   1.00
C3       0.66696    0.52913    0.98445   1.00
C3       0.83336    0.53100    0.97980   1.00
H1       0.72237    0.45136    1.03951   1.00
H1       0.78306    0.45979    1.04724   1.00
C5       0.72835    0.56009    0.96006   1.00
C5       0.76998    0.55836    0.95622   1.00
H1       0.65451    0.45063    1.04103   1.00
H1       0.85091    0.46093    1.04539   1.00
H1       0.65052    0.54902    0.96981   1.00
H1       0.84848    0.54985    0.96257   1.00
C6       0.70515    0.59248    0.94095   1.00
C6       0.79119    0.58427    0.92739   1.00
H2       0.68345    0.60325    0.96155   1.00
H2       0.81310    0.56703    0.91211   1.00
H2       0.72286    0.61835    0.93618   1.00
H2       0.77228    0.59320    0.90354   1.00
C6       0.68606    0.58000    0.90129   1.00
C6       0.80942    0.62154    0.94666   1.00
H2       0.67292    0.55110    0.90439   1.00
H2       0.82383    0.61348    0.97396   1.00
C6       0.65459    0.60782    0.88333   1.00
C6       0.83911    0.64578    0.92180   1.00
H2       0.70949    0.57633    0.87998   1.00
H2       0.78546    0.64077    0.95518   1.00
C6       0.61735    0.60974    0.90900   1.00
C6       0.87708    0.62250    0.91370   1.00
C6       0.67074    0.64962    0.87734   1.00
C6       0.82107    0.65903    0.88253   1.00
C6       0.64245    0.59159    0.84280   1.00
C6       0.85054    0.68289    0.94516   1.00
H2       0.60558    0.58060    0.91431   1.00
H2       0.89020    0.61217    0.94085   1.00
H2       0.62330    0.62315    0.93719   1.00
H2       0.87154    0.59720    0.89529   1.00
H2       0.59459    0.62701    0.89494   1.00
H2       0.89863    0.64054    0.89873   1.00
H2       0.64955    0.66802    0.86227   1.00
H2       0.84098    0.67821    0.86670   1.00
H2       0.67725    0.66343    0.90524   1.00
H2       0.81494    0.63406    0.86380   1.00
H2       0.69745    0.64902    0.86002   1.00
H2       0.79385    0.67481    0.88737   1.00
H2       0.63042    0.56220    0.84544   1.00
H2       0.86383    0.67515    0.97307   1.00
H2       0.62025    0.60993    0.82916   1.00
H2       0.87149    0.70070    0.92907   1.00
H2       0.66739    0.59027    0.82305   1.00
H2       0.82502    0.70099    0.95112   1.00
C4       0.49590    0.26975    1.00249   1.00
C4       0.49576    0.22809    1.00403   1.00
C3       0.47532    0.29103    0.97328   1.00
C3       0.47183    0.20496    0.97910   1.00
C3       0.51734    0.29146    1.03096   1.00
C3       0.52026    0.20830    1.03141   1.00
C2       0.49460    0.35405    1.00047   1.00
C2       0.49686    0.14378    1.00580   1.00
C3       0.47448    0.33189    0.97236   1.00
C3       0.47246    0.16409    0.97977   1.00
C3       0.51555    0.33304    1.02913   1.00
C3       0.52020    0.16664    1.03100   1.00
H1       0.46049    0.27763    0.95136   1.00
H1       0.45276    0.21694    0.95979   1.00
C5       0.53994    0.27165    1.06009   1.00
C5       0.54378    0.23002    1.05836   1.00
H1       0.45897    0.34549    0.95063   1.00
H1       0.45461    0.14909    0.96093   1.00
H1       0.53019    0.34948    1.04902   1.00
H1       0.53743    0.15152    1.04985   1.00
C6       0.55905    0.29485    1.09248   1.00
C6       0.57261    0.20881    1.08427   1.00
H2       0.53845    0.31655    1.10325   1.00
H2       0.58789    0.18690    1.06703   1.00
H2       0.56382    0.27714    1.11835   1.00
H2       0.59646    0.22772    1.09320   1.00
C6       0.59871    0.31394    1.08000   1.00
C6       0.55334    0.19058    1.12154   1.00
H2       0.59561    0.32708    1.05110   1.00
H2       0.52604    0.17617    1.11348   1.00
C6       0.61667    0.34541    1.10782   1.00
C6       0.57820    0.16089    1.14578   1.00
H2       0.62002    0.29051    1.07633   1.00
H2       0.54482    0.21454    1.14077   1.00
C6       0.59100    0.38265    1.10974   1.00
C6       0.58630    0.12292    1.12250   1.00
C6       0.62266    0.32926    1.14962   1.00
C6       0.61747    0.17893    1.15903   1.00
C6       0.65720    0.35755    1.09159   1.00
C6       0.55484    0.14946    1.18289   1.00
H2       0.58569    0.39442    1.08060   1.00
H2       0.55915    0.10980    1.11217   1.00
H2       0.56281    0.37670    1.12315   1.00
H2       0.60471    0.12846    1.09720   1.00
H2       0.60506    0.40541    1.12701   1.00
H2       0.60127    0.10137    1.14054   1.00
H2       0.63773    0.35045    1.16802   1.00
H2       0.63330    0.15902    1.17821   1.00
H2       0.59476    0.32275    1.16343   1.00
H2       0.63620    0.18506    1.13406   1.00
H2       0.63998    0.30255    1.14902   1.00
H2       0.61263    0.20615    1.17481   1.00
H2       0.65456    0.36958    1.06220   1.00
H2       0.52693    0.13617    1.17515   1.00
H2       0.67084    0.37975    1.10993   1.00
H2       0.57093    0.12851    1.20070   1.00
H2       0.67695    0.33261    1.09027   1.00
H2       0.54888    0.17498    1.20099   1.00
C4       0.50249    0.49590    0.76975   1.00
C4       0.50403    0.49576    0.72809   1.00
C3       0.47328    0.47532    0.79103   1.00
C3       0.47910    0.47183    0.70496   1.00
C3       0.53096    0.51734    0.79146   1.00
C3       0.53141    0.52026    0.70830   1.00
C2       0.50047    0.49460    0.85405   1.00
C2       0.50580    0.49686    0.64378   1.00
C3       0.47236    0.47448    0.83189   1.00
C3       0.47977    0.47246    0.66409   1.00
C3       0.52913    0.51555    0.83304   1.00
C3       0.53100    0.52020    0.66664   1.00
H1       0.45136    0.46049    0.77763   1.00
H1       0.45979    0.45276    0.71694   1.00
C5       0.56009    0.53994    0.77165   1.00
C5       0.55836    0.54378    0.73002   1.00
H1       0.45063    0.45897    0.84549   1.00
H1       0.46093    0.45461    0.64909   1.00
H1       0.54902    0.53019    0.84948   1.00
H1       0.54985    0.53743    0.65152   1.00
C6       0.59248    0.55905    0.79485   1.00
C6       0.58427    0.57261    0.70881   1.00
H2       0.60325    0.53845    0.81655   1.00
H2       0.56703    0.58789    0.68690   1.00
H2       0.61835    0.56382    0.77714   1.00
H2       0.59320    0.59646    0.72772   1.00
C6       0.58000    0.59871    0.81394   1.00
C6       0.62154    0.55334    0.69058   1.00
H2       0.55110    0.59561    0.82708   1.00
H2       0.61348    0.52604    0.67617   1.00
C6       0.60782    0.61667    0.84541   1.00
C6       0.64578    0.57820    0.66089   1.00
H2       0.57633    0.62002    0.79051   1.00
H2       0.64077    0.54482    0.71454   1.00
C6       0.60974    0.59100    0.88265   1.00
C6       0.62250    0.58630    0.62292   1.00
C6       0.64962    0.62266    0.82926   1.00
C6       0.65903    0.61747    0.67893   1.00
C6       0.59159    0.65720    0.85755   1.00
C6       0.68289    0.55484    0.64946   1.00
H2       0.58060    0.58569    0.89442   1.00
H2       0.61217    0.55915    0.60980   1.00
H2       0.62315    0.56281    0.87670   1.00
H2       0.59720    0.60471    0.62846   1.00
H2       0.62701    0.60506    0.90541   1.00
H2       0.64054    0.60127    0.60137   1.00
H2       0.66802    0.63773    0.85045   1.00
H2       0.67821    0.63330    0.65902   1.00
H2       0.66343    0.59476    0.82275   1.00
H2       0.63406    0.63620    0.68506   1.00
H2       0.64902    0.63998    0.80255   1.00
H2       0.67481    0.61263    0.70615   1.00
H2       0.56220    0.65456    0.86958   1.00
H2       0.67515    0.52693    0.63617   1.00
H2       0.60993    0.67084    0.87975   1.00
H2       0.70070    0.57093    0.62851   1.00
H2       0.59027    0.67695    0.83261   1.00
H2       0.70099    0.54888    0.67498   1.00
C4       0.50249    1.00410    0.73025   1.00
C4       0.50403    1.00424    0.77191   1.00
C3       0.47328    1.02468    0.70897   1.00
C3       0.47910    1.02817    0.79504   1.00
C3       0.53096    0.98266    0.70854   1.00
C3       0.53141    0.97974    0.79170   1.00
C2       0.50047    1.00540    0.64595   1.00
C2       0.50580    1.00314    0.85622   1.00
C3       0.47236    1.02552    0.66811   1.00
C3       0.47977    1.02754    0.83591   1.00
C3       0.52913    0.98445    0.66696   1.00
C3       0.53100    0.97980    0.83336   1.00
H1       0.45136    1.03951    0.72237   1.00
H1       0.45979    1.04724    0.78306   1.00
C5       0.56009    0.96006    0.72835   1.00
C5       0.55836    0.95622    0.76998   1.00
H1       0.45063    1.04103    0.65451   1.00
H1       0.46093    1.04539    0.85091   1.00
H1       0.54902    0.96981    0.65052   1.00
H1       0.54985    0.96257    0.84848   1.00
C6       0.59248    0.94095    0.70515   1.00
C6       0.58427    0.92739    0.79119   1.00
H2       0.60325    0.96155    0.68345   1.00
H2       0.56703    0.91211    0.81310   1.00
H2       0.61835    0.93618    0.72286   1.00
H2       0.59320    0.90354    0.77228   1.00
C6       0.58000    0.90129    0.68606   1.00
C6       0.62154    0.94666    0.80942   1.00
H2       0.55110    0.90439    0.67292   1.00
H2       0.61348    0.97396    0.82383   1.00
C6       0.60782    0.88333    0.65459   1.00
C6       0.64578    0.92180    0.83911   1.00
H2       0.57633    0.87998    0.70949   1.00
H2       0.64077    0.95518    0.78546   1.00
C6       0.60974    0.90900    0.61735   1.00
C6       0.62250    0.91370    0.87708   1.00
C6       0.64962    0.87734    0.67074   1.00
C6       0.65903    0.88253    0.82107   1.00
C6       0.59159    0.84280    0.64245   1.00
C6       0.68289    0.94516    0.85054   1.00
H2       0.58060    0.91431    0.60558   1.00
H2       0.61217    0.94085    0.89020   1.00
H2       0.62315    0.93719    0.62330   1.00
H2       0.59720    0.89529    0.87154   1.00
H2       0.62701    0.89494    0.59459   1.00
H2       0.64054    0.89873    0.89863   1.00
H2       0.66802    0.86227    0.64955   1.00
H2       0.67821    0.86670    0.84098   1.00
H2       0.66343    0.90524    0.67725   1.00
H2       0.63406    0.86380    0.81494   1.00
H2       0.64902    0.86002    0.69745   1.00
H2       0.67481    0.88737    0.79385   1.00
H2       0.56220    0.84544    0.63042   1.00
H2       0.67515    0.97307    0.86383   1.00
H2       0.60993    0.82916    0.62025   1.00
H2       0.70070    0.92907    0.87149   1.00
H2       0.59027    0.82305    0.66739   1.00
H2       0.70099    0.95112    0.82502   1.00
C4       0.50410    1.23025    0.50249   1.00
C4       0.50424    1.27191    0.50403   1.00
C3       0.52468    1.20897    0.47328   1.00
C3       0.52817    1.29504    0.47910   1.00
C3       0.48266    1.20854    0.53096   1.00
C3       0.47974    1.29170    0.53141   1.00
C2       0.50540    1.14595    0.50047   1.00
C2       0.50314    1.35622    0.50580   1.00
C3       0.52552    1.16811    0.47236   1.00
C3       0.52754    1.33591    0.47977   1.00
C3       0.48445    1.16696    0.52913   1.00
C3       0.47980    1.33336    0.53100   1.00
H1       0.53951    1.22237    0.45136   1.00
H1       0.54724    1.28306    0.45979   1.00
C5       0.46006    1.22835    0.56009   1.00
C5       0.45622    1.26998    0.55836   1.00
H1       0.54103    1.15451    0.45063   1.00
H1       0.54539    1.35091    0.46093   1.00
H1       0.46981    1.15052    0.54902   1.00
H1       0.46257    1.34848    0.54985   1.00
C6       0.44095    1.20515    0.59248   1.00
C6       0.42739    1.29119    0.58427   1.00
H2       0.46155    1.18345    0.60325   1.00
H2       0.41211    1.31310    0.56703   1.00
H2       0.43618    1.22286    0.61835   1.00
H2       0.40354    1.27228    0.59320   1.00
C6       0.40129    1.18606    0.58000   1.00
C6       0.44666    1.30942    0.62154   1.00
H2       0.40439    1.17292    0.55110   1.00
H2       0.47396    1.32383    0.61348   1.00
C6       0.38333    1.15459    0.60782   1.00
C6       0.42180    1.33911    0.64578   1.00
H2       0.37998    1.20949    0.57633   1.00
H2       0.45518    1.28546    0.64077   1.00
C6       0.40900    1.11735    0.60974   1.00
C6       0.41370    1.37708    0.62250   1.00
C6       0.37734    1.17074    0.64962   1.00
C6       0.38253    1.32107    0.65903   1.00
C6       0.34280    1.14245    0.59159   1.00
C6       0.44516    1.35054    0.68289   1.00
H2       0.41431    1.10558    0.58060   1.00
H2       0.44085    1.39020    0.61217   1.00
H2       0.43719    1.12330    0.62315   1.00
H2       0.39529    1.37154    0.59720   1.00
H2       0.39494    1.09459    0.62701   1.00
H2       0.39873    1.39863    0.64054   1.00
H2       0.36227    1.14955    0.66802   1.00
H2       0.36670    1.34098    0.67821   1.00
H2       0.40524    1.17725    0.66343   1.00
H2       0.36380    1.31494    0.63406   1.00
H2       0.36002    1.19745    0.64902   1.00
H2       0.38737    1.29385    0.67481   1.00
H2       0.34544    1.13042    0.56220   1.00
H2       0.47307    1.36383    0.67515   1.00
H2       0.32916    1.12025    0.60993   1.00
H2       0.42907    1.37149    0.70070   1.00
H2       0.32305    1.16739    0.59027   1.00
H2       0.45112    1.32502    0.70099   1.00
C4       0.26975    1.00249    0.49590   1.00
C4       0.22809    1.00403    0.49576   1.00
C3       0.29103    0.97328    0.47532   1.00
C3       0.20496    0.97910    0.47183   1.00
C3       0.29146    1.03096    0.51734   1.00
C3       0.20830    1.03141    0.52026   1.00
C2       0.35405    1.00047    0.49460   1.00
C2       0.14378    1.00580    0.49686   1.00
C3       0.33189    0.97236    0.47448   1.00
C3       0.16409    0.97977    0.47246   1.00
C3       0.33304    1.02913    0.51555   1.00
C3       0.16664    1.03100    0.52020   1.00
H1       0.27763    0.95136    0.46049   1.00
H1       0.21694    0.95979    0.45276   1.00
C5       0.27165    1.06009    0.53994   1.00
C5       0.23002    1.05836    0.54378   1.00
H1       0.34549    0.95063    0.45897   1.00
H1       0.14909    0.96093    0.45461   1.00
H1       0.34948    1.04902    0.53019   1.00
H1       0.15152    1.04985    0.53743   1.00
C6       0.29485    1.09248    0.55905   1.00
C6       0.20881    1.08427    0.57261   1.00
H2       0.31655    1.10325    0.53845   1.00
H2       0.18690    1.06703    0.58789   1.00
H2       0.27714    1.11835    0.56382   1.00
H2       0.22772    1.09320    0.59646   1.00
C6       0.31394    1.08000    0.59871   1.00
C6       0.19058    1.12154    0.55334   1.00
H2       0.32708    1.05110    0.59561   1.00
H2       0.17617    1.11348    0.52604   1.00
C6       0.34541    1.10782    0.61667   1.00
C6       0.16089    1.14578    0.57820   1.00
H2       0.29051    1.07633    0.62002   1.00
H2       0.21454    1.14077    0.54482   1.00
C6       0.38265    1.10974    0.59100   1.00
C6       0.12292    1.12250    0.58630   1.00
C6       0.32926    1.14962    0.62266   1.00
C6       0.17893    1.15903    0.61747   1.00
C6       0.35755    1.09159    0.65720   1.00
C6       0.14946    1.18289    0.55484   1.00
H2       0.39442    1.08060    0.58569   1.00
H2       0.10980    1.11217    0.55915   1.00
H2       0.37670    1.12315    0.56281   1.00
H2       0.12846    1.09720    0.60471   1.00
H2       0.40541    1.12701    0.60506   1.00
H2       0.10137    1.14054    0.60127   1.00
H2       0.35045    1.16802    0.63773   1.00
H2       0.15902    1.17821    0.63330   1.00
H2       0.32275    1.16343    0.59476   1.00
H2       0.18506    1.13406    0.63620   1.00
H2       0.30255    1.14902    0.63998   1.00
H2       0.20615    1.17481    0.61263   1.00
H2       0.36958    1.06220    0.65456   1.00
H2       0.13617    1.17515    0.52693   1.00
H2       0.37975    1.10993    0.67084   1.00
H2       0.12851    1.20070    0.57093   1.00
H2       0.33261    1.09027    0.67695   1.00
H2       0.17498    1.20099    0.54888   1.00
C4       0.73025    1.00249    0.50410   1.00
C4       0.77191    1.00403    0.50424   1.00
C3       0.70897    0.97328    0.52468   1.00
C3       0.79504    0.97910    0.52817   1.00
C3       0.70854    1.03096    0.48266   1.00
C3       0.79170    1.03141    0.47974   1.00
C2       0.64595    1.00047    0.50540   1.00
C2       0.85622    1.00580    0.50314   1.00
C3       0.66811    0.97236    0.52552   1.00
C3       0.83591    0.97977    0.52754   1.00
C3       0.66696    1.02913    0.48445   1.00
C3       0.83336    1.03100    0.47980   1.00
H1       0.72237    0.95136    0.53951   1.00
H1       0.78306    0.95979    0.54724   1.00
C5       0.72835    1.06009    0.46006   1.00
C5       0.76998    1.05836    0.45622   1.00
H1       0.65451    0.95063    0.54103   1.00
H1       0.85091    0.96093    0.54539   1.00
H1       0.65052    1.04902    0.46981   1.00
H1       0.84848    1.04985    0.46257   1.00
C6       0.70515    1.09248    0.44095   1.00
C6       0.79119    1.08427    0.42739   1.00
H2       0.68345    1.10325    0.46155   1.00
H2       0.81310    1.06703    0.41211   1.00
H2       0.72286    1.11835    0.43618   1.00
H2       0.77228    1.09320    0.40354   1.00
C6       0.68606    1.08000    0.40129   1.00
C6       0.80942    1.12154    0.44666   1.00
H2       0.67292    1.05110    0.40439   1.00
H2       0.82383    1.11348    0.47396   1.00
C6       0.65459    1.10782    0.38333   1.00
C6       0.83911    1.14578    0.42180   1.00
H2       0.70949    1.07633    0.37998   1.00
H2       0.78546    1.14077    0.45518   1.00
C6       0.61735    1.10974    0.40900   1.00
C6       0.87708    1.12250    0.41370   1.00
C6       0.67074    1.14962    0.37734   1.00
C6       0.82107    1.15903    0.38253   1.00
C6       0.64245    1.09159    0.34280   1.00
C6       0.85054    1.18289    0.44516   1.00
H2       0.60558    1.08060    0.41431   1.00
H2       0.89020    1.11217    0.44085   1.00
H2       0.62330    1.12315    0.43719   1.00
H2       0.87154    1.09720    0.39529   1.00
H2       0.59459    1.12701    0.39494   1.00
H2       0.89863    1.14054    0.39873   1.00
H2       0.64955    1.16802    0.36227   1.00
H2       0.84098    1.17821    0.36670   1.00
H2       0.67725    1.16343    0.40524   1.00
H2       0.81494    1.13406    0.36380   1.00
H2       0.69745    1.14902    0.36002   1.00
H2       0.79385    1.17481    0.38737   1.00
H2       0.63042    1.06220    0.34544   1.00
H2       0.86383    1.17515    0.47307   1.00
H2       0.62025    1.10993    0.32916   1.00
H2       0.87149    1.20070    0.42907   1.00
H2       0.66739    1.09027    0.32305   1.00
H2       0.82502    1.20099    0.45112   1.00
C4       0.49590    0.76975    0.50249   1.00
C4       0.49576    0.72809    0.50403   1.00
C3       0.47532    0.79103    0.47328   1.00
C3       0.47183    0.70496    0.47910   1.00
C3       0.51734    0.79146    0.53096   1.00
C3       0.52026    0.70830    0.53141   1.00
C2       0.49460    0.85405    0.50047   1.00
C2       0.49686    0.64378    0.50580   1.00
C3       0.47448    0.83189    0.47236   1.00
C3       0.47246    0.66409    0.47977   1.00
C3       0.51555    0.83304    0.52913   1.00
C3       0.52020    0.66664    0.53100   1.00
H1       0.46049    0.77763    0.45136   1.00
H1       0.45276    0.71694    0.45979   1.00
C5       0.53994    0.77165    0.56009   1.00
C5       0.54378    0.73002    0.55836   1.00
H1       0.45897    0.84549    0.45063   1.00
H1       0.45461    0.64909    0.46093   1.00
H1       0.53019    0.84948    0.54902   1.00
H1       0.53743    0.65152    0.54985   1.00
C6       0.55905    0.79485    0.59248   1.00
C6       0.57261    0.70881    0.58427   1.00
H2       0.53845    0.81655    0.60325   1.00
H2       0.58789    0.68690    0.56703   1.00
H2       0.56382    0.77714    0.61835   1.00
H2       0.59646    0.72772    0.59320   1.00
C6       0.59871    0.81394    0.58000   1.00
C6       0.55334    0.69058    0.62154   1.00
H2       0.59561    0.82708    0.55110   1.00
H2       0.52604    0.67617    0.61348   1.00
C6       0.61667    0.84541    0.60782   1.00
C6       0.57820    0.66089    0.64578   1.00
H2       0.62002    0.79051    0.57633   1.00
H2       0.54482    0.71454    0.64077   1.00
C6       0.59100    0.88265    0.60974   1.00
C6       0.58630    0.62292    0.62250   1.00
C6       0.62266    0.82926    0.64962   1.00
C6       0.61747    0.67893    0.65903   1.00
C6       0.65720    0.85755    0.59159   1.00
C6       0.55484    0.64946    0.68289   1.00
H2       0.58569    0.89442    0.58060   1.00
H2       0.55915    0.60980    0.61217   1.00
H2       0.56281    0.87670    0.62315   1.00
H2       0.60471    0.62846    0.59720   1.00
H2       0.60506    0.90541    0.62701   1.00
H2       0.60127    0.60137    0.64054   1.00
H2       0.63773    0.85045    0.66802   1.00
H2       0.63330    0.65902    0.67821   1.00
H2       0.59476    0.82275    0.66343   1.00
H2       0.63620    0.68506    0.63406   1.00
H2       0.63998    0.80255    0.64902   1.00
H2       0.61263    0.70615    0.67481   1.00
H2       0.65456    0.86958    0.56220   1.00
H2       0.52693    0.63617    0.67515   1.00
H2       0.67084    0.87975    0.60993   1.00
H2       0.57093    0.62851    0.70070   1.00
H2       0.67695    0.83261    0.59027   1.00
H2       0.54888    0.67498    0.70099   1.00
C4       0.50249    0.99590    0.26975   1.00
C4       0.50403    0.99576    0.22809   1.00
C3       0.47328    0.97532    0.29103   1.00
C3       0.47910    0.97183    0.20496   1.00
C3       0.53096    1.01734    0.29146   1.00
C3       0.53141    1.02026    0.20830   1.00
C2       0.50047    0.99460    0.35405   1.00
C2       0.50580    0.99686    0.14378   1.00
C3       0.47236    0.97448    0.33189   1.00
C3       0.47977    0.97246    0.16409   1.00
C3       0.52913    1.01555    0.33304   1.00
C3       0.53100    1.02020    0.16664   1.00
H1       0.45136    0.96049    0.27763   1.00
H1       0.45979    0.95276    0.21694   1.00
C5       0.56009    1.03994    0.27165   1.00
C5       0.55836    1.04378    0.23002   1.00
H1       0.45063    0.95897    0.34549   1.00
H1       0.46093    0.95461    0.14909   1.00
H1       0.54902    1.03019    0.34948   1.00
H1       0.54985    1.03743    0.15152   1.00
C6       0.59248    1.05905    0.29485   1.00
C6       0.58427    1.07261    0.20881   1.00
H2       0.60325    1.03845    0.31655   1.00
H2       0.56703    1.08789    0.18690   1.00
H2       0.61835    1.06382    0.27714   1.00
H2       0.59320    1.09646    0.22772   1.00
C6       0.58000    1.09871    0.31394   1.00
C6       0.62154    1.05334    0.19058   1.00
H2       0.55110    1.09561    0.32708   1.00
H2       0.61348    1.02604    0.17617   1.00
C6       0.60782    1.11667    0.34541   1.00
C6       0.64578    1.07820    0.16089   1.00
H2       0.57633    1.12002    0.29051   1.00
H2       0.64077    1.04482    0.21454   1.00
C6       0.60974    1.09100    0.38265   1.00
C6       0.62250    1.08630    0.12292   1.00
C6       0.64962    1.12266    0.32926   1.00
C6       0.65903    1.11747    0.17893   1.00
C6       0.59159    1.15720    0.35755   1.00
C6       0.68289    1.05484    0.14946   1.00
H2       0.58060    1.08569    0.39442   1.00
H2       0.61217    1.05915    0.10980   1.00
H2       0.62315    1.06281    0.37670   1.00
H2       0.59720    1.10471    0.12846   1.00
H2       0.62701    1.10506    0.40541   1.00
H2       0.64054    1.10127    0.10137   1.00
H2       0.66802    1.13773    0.35045   1.00
H2       0.67821    1.13330    0.15902   1.00
H2       0.66343    1.09476    0.32275   1.00
H2       0.63406    1.13620    0.18506   1.00
H2       0.64902    1.13998    0.30255   1.00
H2       0.67481    1.11263    0.20615   1.00
H2       0.56220    1.15456    0.36958   1.00
H2       0.67515    1.02693    0.13617   1.00
H2       0.60993    1.17084    0.37975   1.00
H2       0.70070    1.07093    0.12851   1.00
H2       0.59027    1.17695    0.33261   1.00
H2       0.70099    1.04888    0.17498   1.00
C4       1.00249    0.50410    0.73025   1.00
C4       1.00403    0.50424    0.77191   1.00
C3       0.97328    0.52468    0.70897   1.00
C3       0.97910    0.52817    0.79504   1.00
C3       1.03096    0.48266    0.70854   1.00
C3       1.03141    0.47974    0.79170   1.00
C2       1.00047    0.50540    0.64595   1.00
C2       1.00580    0.50314    0.85622   1.00
C3       0.97236    0.52552    0.66811   1.00
C3       0.97977    0.52754    0.83591   1.00
C3       1.02913    0.48445    0.66696   1.00
C3       1.03100    0.47980    0.83336   1.00
H1       0.95136    0.53951    0.72237   1.00
H1       0.95979    0.54724    0.78306   1.00
C5       1.06009    0.46006    0.72835   1.00
C5       1.05836    0.45622    0.76998   1.00
H1       0.95063    0.54103    0.65451   1.00
H1       0.96093    0.54539    0.85091   1.00
H1       1.04902    0.46981    0.65052   1.00
H1       1.04985    0.46257    0.84848   1.00
C6       1.09248    0.44095    0.70515   1.00
C6       1.08427    0.42739    0.79119   1.00
H2       1.10325    0.46155    0.68345   1.00
H2       1.06703    0.41211    0.81310   1.00
H2       1.11835    0.43618    0.72286   1.00
H2       1.09320    0.40354    0.77228   1.00
C6       1.08000    0.40129    0.68606   1.00
C6       1.12154    0.44666    0.80942   1.00
H2       1.05110    0.40439    0.67292   1.00
H2       1.11348    0.47396    0.82383   1.00
C6       1.10782    0.38333    0.65459   1.00
C6       1.14578    0.42180    0.83911   1.00
H2       1.07633    0.37998    0.70949   1.00
H2       1.14077    0.45518    0.78546   1.00
C6       1.10974    0.40900    0.61735   1.00
C6       1.12250    0.41370    0.87708   1.00
C6       1.14962    0.37734    0.67074   1.00
C6       1.15903    0.38253    0.82107   1.00
C6       1.09159    0.34280    0.64245   1.00
C6       1.18289    0.44516    0.85054   1.00
H2       1.08060    0.41431    0.60558   1.00
H2       1.11217    0.44085    0.89020   1.00
H2       1.12315    0.43719    0.62330   1.00
H2       1.09720    0.39529    0.87154   1.00
H2       1.12701    0.39494    0.59459   1.00
H2       1.14054    0.39873    0.89863   1.00
H2       1.16802    0.36227    0.64955   1.00
H2       1.17821    0.36670    0.84098   1.00
H2       1.16343    0.40524    0.67725   1.00
H2       1.13406    0.36380    0.81494   1.00
H2       1.14902    0.36002    0.69745   1.00
H2       1.17481    0.38737    0.79385   1.00
H2       1.06220    0.34544    0.63042   1.00
H2       1.17515    0.47307    0.86383   1.00
H2       1.10993    0.32916    0.62025   1.00
H2       1.20070    0.42907    0.87149   1.00
H2       1.09027    0.32305    0.66739   1.00
H2       1.20099    0.45112    0.82502   1.00
C4       1.00410    0.73025    0.50249   1.00
C4       1.00424    0.77191    0.50403   1.00
C3       1.02468    0.70897    0.47328   1.00
C3       1.02817    0.79504    0.47910   1.00
C3       0.98266    0.70854    0.53096   1.00
C3       0.97974    0.79170    0.53141   1.00
C2       1.00540    0.64595    0.50047   1.00
C2       1.00314    0.85622    0.50580   1.00
C3       1.02552    0.66811    0.47236   1.00
C3       1.02754    0.83591    0.47977   1.00
C3       0.98445    0.66696    0.52913   1.00
C3       0.97980    0.83336    0.53100   1.00
H1       1.03951    0.72237    0.45136   1.00
H1       1.04724    0.78306    0.45979   1.00
C5       0.96006    0.72835    0.56009   1.00
C5       0.95622    0.76998    0.55836   1.00
H1       1.04103    0.65451    0.45063   1.00
H1       1.04539    0.85091    0.46093   1.00
H1       0.96981    0.65052    0.54902   1.00
H1       0.96257    0.84848    0.54985   1.00
C6       0.94095    0.70515    0.59248   1.00
C6       0.92739    0.79119    0.58427   1.00
H2       0.96155    0.68345    0.60325   1.00
H2       0.91211    0.81310    0.56703   1.00
H2       0.93618    0.72286    0.61835   1.00
H2       0.90354    0.77228    0.59320   1.00
C6       0.90129    0.68606    0.58000   1.00
C6       0.94666    0.80942    0.62154   1.00
H2       0.90439    0.67292    0.55110   1.00
H2       0.97396    0.82383    0.61348   1.00
C6       0.88333    0.65459    0.60782   1.00
C6       0.92180    0.83911    0.64578   1.00
H2       0.87998    0.70949    0.57633   1.00
H2       0.95518    0.78546    0.64077   1.00
C6       0.90900    0.61735    0.60974   1.00
C6       0.91370    0.87708    0.62250   1.00
C6       0.87734    0.67074    0.64962   1.00
C6       0.88253    0.82107    0.65903   1.00
C6       0.84280    0.64245    0.59159   1.00
C6       0.94516    0.85054    0.68289   1.00
H2       0.91431    0.60558    0.58060   1.00
H2       0.94085    0.89020    0.61217   1.00
H2       0.93719    0.62330    0.62315   1.00
H2       0.89529    0.87154    0.59720   1.00
H2       0.89494    0.59459    0.62701   1.00
H2       0.89873    0.89863    0.64054   1.00
H2       0.86227    0.64955    0.66802   1.00
H2       0.86670    0.84098    0.67821   1.00
H2       0.90524    0.67725    0.66343   1.00
H2       0.86380    0.81494    0.63406   1.00
H2       0.86002    0.69745    0.64902   1.00
H2       0.88737    0.79385    0.67481   1.00
H2       0.84544    0.63042    0.56220   1.00
H2       0.97307    0.86383    0.67515   1.00
H2       0.82916    0.62025    0.60993   1.00
H2       0.92907    0.87149    0.70070   1.00
H2       0.82305    0.66739    0.59027   1.00
H2       0.95112    0.82502    0.70099   1.00
C4       0.76975    0.50249    0.49590   1.00
C4       0.72809    0.50403    0.49576   1.00
C3       0.79103    0.47328    0.47532   1.00
C3       0.70496    0.47910    0.47183   1.00
C3       0.79146    0.53096    0.51734   1.00
C3       0.70830    0.53141    0.52026   1.00
C2       0.85405    0.50047    0.49460   1.00
C2       0.64378    0.50580    0.49686   1.00
C3       0.83189    0.47236    0.47448   1.00
C3       0.66409    0.47977    0.47246   1.00
C3       0.83304    0.52913    0.51555   1.00
C3       0.66664    0.53100    0.52020   1.00
H1       0.77763    0.45136    0.46049   1.00
H1       0.71694    0.45979    0.45276   1.00
C5       0.77165    0.56009    0.53994   1.00
C5       0.73002    0.55836    0.54378   1.00
H1       0.84549    0.45063    0.45897   1.00
H1       0.64909    0.46093    0.45461   1.00
H1       0.84948    0.54902    0.53019   1.00
H1       0.65152    0.54985    0.53743   1.00
C6       0.79485    0.59248    0.55905   1.00
C6       0.70881    0.58427    0.57261   1.00
H2       0.81655    0.60325    0.53845   1.00
H2       0.68690    0.56703    0.58789   1.00
H2       0.77714    0.61835    0.56382   1.00
H2       0.72772    0.59320    0.59646   1.00
C6       0.81394    0.58000    0.59871   1.00
C6       0.69058    0.62154    0.55334   1.00
H2       0.82708    0.55110    0.59561   1.00
H2       0.67617    0.61348    0.52604   1.00
C6       0.84541    0.60782    0.61667   1.00
C6       0.66089    0.64578    0.57820   1.00
H2       0.79051    0.57633    0.62002   1.00
H2       0.71454    0.64077    0.54482   1.00
C6       0.88265    0.60974    0.59100   1.00
C6       0.62292    0.62250    0.58630   1.00
C6       0.82926    0.64962    0.62266   1.00
C6       0.67893    0.65903    0.61747   1.00
C6       0.85755    0.59159    0.65720   1.00
C6       0.64946    0.68289    0.55484   1.00
H2       0.89442    0.58060    0.58569   1.00
H2       0.60980    0.61217    0.55915   1.00
H2       0.87670    0.62315    0.56281   1.00
H2       0.62846    0.59720    0.60471   1.00
H2       0.90541    0.62701    0.60506   1.00
H2       0.60137    0.64054    0.60127   1.00
H2       0.85045    0.66802    0.63773   1.00
H2       0.65902    0.67821    0.63330   1.00
H2       0.82275    0.66343    0.59476   1.00
H2       0.68506    0.63406    0.63620   1.00
H2       0.80255    0.64902    0.63998   1.00
H2       0.70615    0.67481    0.61263   1.00
H2       0.86958    0.56220    0.65456   1.00
H2       0.63617    0.67515    0.52693   1.00
H2       0.87975    0.60993    0.67084   1.00
H2       0.62851    0.70070    0.57093   1.00
H2       0.83261    0.59027    0.67695   1.00
H2       0.67498    0.70099    0.54888   1.00
C4       1.23025    0.50249    0.50410   1.00
C4       1.27191    0.50403    0.50424   1.00
C3       1.20897    0.47328    0.52468   1.00
C3       1.29504    0.47910    0.52817   1.00
C3       1.20854    0.53096    0.48266   1.00
C3       1.29170    0.53141    0.47974   1.00
C2       1.14595    0.50047    0.50540   1.00
C2       1.35622    0.50580    0.50314   1.00
C3       1.16811    0.47236    0.52552   1.00
C3       1.33591    0.47977    0.52754   1.00
C3       1.16696    0.52913    0.48445   1.00
C3       1.33336    0.53100    0.47980   1.00
H1       1.22237    0.45136    0.53951   1.00
H1       1.28306    0.45979    0.54724   1.00
C5       1.22835    0.56009    0.46006   1.00
C5       1.26998    0.55836    0.45622   1.00
H1       1.15451    0.45063    0.54103   1.00
H1       1.35091    0.46093    0.54539   1.00
H1       1.15052    0.54902    0.46981   1.00
H1       1.34848    0.54985    0.46257   1.00
C6       1.20515    0.59248    0.44095   1.00
C6       1.29119    0.58427    0.42739   1.00
H2       1.18345    0.60325    0.46155   1.00
H2       1.31310    0.56703    0.41211   1.00
H2       1.22286    0.61835    0.43618   1.00
H2       1.27228    0.59320    0.40354   1.00
C6       1.18606    0.58000    0.40129   1.00
C6       1.30942    0.62154    0.44666   1.00
H2       1.17292    0.55110    0.40439   1.00
H2       1.32383    0.61348    0.47396   1.00
C6       1.15459    0.60782    0.38333   1.00
C6       1.33911    0.64578    0.42180   1.00
H2       1.20949    0.57633    0.37998   1.00
H2       1.28546    0.64077    0.45518   1.00
C6       1.11735    0.60974    0.40900   1.00
C6       1.37708    0.62250    0.41370   1.00
C6       1.17074    0.64962    0.37734   1.00
C6       1.32107    0.65903    0.38253   1.00
C6       1.14245    0.59159    0.34280   1.00
C6       1.35054    0.68289    0.44516   1.00
H2       1.10558    0.58060    0.41431   1.00
H2       1.39020    0.61217    0.44085   1.00
H2       1.12330    0.62315    0.43719   1.00
H2       1.37154    0.59720    0.39529   1.00
H2       1.09459    0.62701    0.39494   1.00
H2       1.39863    0.64054    0.39873   1.00
H2       1.14955    0.66802    0.36227   1.00
H2       1.34098    0.67821    0.36670   1.00
H2       1.17725    0.66343    0.40524   1.00
H2       1.31494    0.63406    0.36380   1.00
H2       1.19745    0.64902    0.36002   1.00
H2       1.29385    0.67481    0.38737   1.00
H2       1.13042    0.56220    0.34544   1.00
H2       1.36383    0.67515    0.47307   1.00
H2       1.12025    0.60993    0.32916   1.00
H2       1.37149    0.70070    0.42907   1.00
H2       1.16739    0.59027    0.32305   1.00
H2       1.32502    0.70099    0.45112   1.00
C4       0.99590    0.26975    0.50249   1.00
C4       0.99576    0.22809    0.50403   1.00
C3       0.97532    0.29103    0.47328   1.00
C3       0.97183    0.20496    0.47910   1.00
C3       1.01734    0.29146    0.53096   1.00
C3       1.02026    0.20830    0.53141   1.00
C2       0.99460    0.35405    0.50047   1.00
C2       0.99686    0.14378    0.50580   1.00
C3       0.97448    0.33189    0.47236   1.00
C3       0.97246    0.16409    0.47977   1.00
C3       1.01555    0.33304    0.52913   1.00
C3       1.02020    0.16664    0.53100   1.00
H1       0.96049    0.27763    0.45136   1.00
H1       0.95276    0.21694    0.45979   1.00
C5       1.03994    0.27165    0.56009   1.00
C5       1.04378    0.23002    0.55836   1.00
H1       0.95897    0.34549    0.45063   1.00
H1       0.95461    0.14909    0.46093   1.00
H1       1.03019    0.34948    0.54902   1.00
H1       1.03743    0.15152    0.54985   1.00
C6       1.05905    0.29485    0.59248   1.00
C6       1.07261    0.20881    0.58427   1.00
H2       1.03845    0.31655    0.60325   1.00
H2       1.08789    0.18690    0.56703   1.00
H2       1.06382    0.27714    0.61835   1.00
H2       1.09646    0.22772    0.59320   1.00
C6       1.09871    0.31394    0.58000   1.00
C6       1.05334    0.19058    0.62154   1.00
H2       1.09561    0.32708    0.55110   1.00
H2       1.02604    0.17617    0.61348   1.00
C6       1.11667    0.34541    0.60782   1.00
C6       1.07820    0.16089    0.64578   1.00
H2       1.12002    0.29051    0.57633   1.00
H2       1.04482    0.21454    0.64077   1.00
C6       1.09100    0.38265    0.60974   1.00
C6       1.08630    0.12292    0.62250   1.00
C6       1.12266    0.32926    0.64962   1.00
C6       1.11747    0.17893    0.65903   1.00
C6       1.15720    0.35755    0.59159   1.00
C6       1.05484    0.14946    0.68289   1.00
H2       1.08569    0.39442    0.58060   1.00
H2       1.05915    0.10980    0.61217   1.00
H2       1.06281    0.37670    0.62315   1.00
H2       1.10471    0.12846    0.59720   1.00
H2       1.10506    0.40541    0.62701   1.00
H2       1.10127    0.10137    0.64054   1.00
H2       1.13773    0.35045    0.66802   1.00
H2       1.13330    0.15902    0.67821   1.00
H2       1.09476    0.32275    0.66343   1.00
H2       1.13620    0.18506    0.63406   1.00
H2       1.13998    0.30255    0.64902   1.00
H2       1.11263    0.20615    0.67481   1.00
H2       1.15456    0.36958    0.56220   1.00
H2       1.02693    0.13617    0.67515   1.00
H2       1.17084    0.37975    0.60993   1.00
H2       1.07093    0.12851    0.70070   1.00
H2       1.17695    0.33261    0.59027   1.00
H2       1.04888    0.17498    0.70099   1.00
C4       1.00249    0.49590    0.26975   1.00
C4       1.00403    0.49576    0.22809   1.00
C3       0.97328    0.47532    0.29103   1.00
C3       0.97910    0.47183    0.20496   1.00
C3       1.03096    0.51734    0.29146   1.00
C3       1.03141    0.52026    0.20830   1.00
C2       1.00047    0.49460    0.35405   1.00
C2       1.00580    0.49686    0.14378   1.00
C3       0.97236    0.47448    0.33189   1.00
C3       0.97977    0.47246    0.16409   1.00
C3       1.02913    0.51555    0.33304   1.00
C3       1.03100    0.52020    0.16664   1.00
H1       0.95136    0.46049    0.27763   1.00
H1       0.95979    0.45276    0.21694   1.00
C5       1.06009    0.53994    0.27165   1.00
C5       1.05836    0.54378    0.23002   1.00
H1       0.95063    0.45897    0.34549   1.00
H1       0.96093    0.45461    0.14909   1.00
H1       1.04902    0.53019    0.34948   1.00
H1       1.04985    0.53743    0.15152   1.00
C6       1.09248    0.55905    0.29485   1.00
C6       1.08427    0.57261    0.20881   1.00
H2       1.10325    0.53845    0.31655   1.00
H2       1.06703    0.58789    0.18690   1.00
H2       1.11835    0.56382    0.27714   1.00
H2       1.09320    0.59646    0.22772   1.00
C6       1.08000    0.59871    0.31394   1.00
C6       1.12154    0.55334    0.19058   1.00
H2       1.05110    0.59561    0.32708   1.00
H2       1.11348    0.52604    0.17617   1.00
C6       1.10782    0.61667    0.34541   1.00
C6       1.14578    0.57820    0.16089   1.00
H2       1.07633    0.62002    0.29051   1.00
H2       1.14077    0.54482    0.21454   1.00
C6       1.10974    0.59100    0.38265   1.00
C6       1.12250    0.58630    0.12292   1.00
C6       1.14962    0.62266    0.32926   1.00
C6       1.15903    0.61747    0.17893   1.00
C6       1.09159    0.65720    0.35755   1.00
C6       1.18289    0.55484    0.14946   1.00
H2       1.08060    0.58569    0.39442   1.00
H2       1.11217    0.55915    0.10980   1.00
H2       1.12315    0.56281    0.37670   1.00
H2       1.09720    0.60471    0.12846   1.00
H2       1.12701    0.60506    0.40541   1.00
H2       1.14054    0.60127    0.10137   1.00
H2       1.16802    0.63773    0.35045   1.00
H2       1.17821    0.63330    0.15902   1.00
H2       1.16343    0.59476    0.32275   1.00
H2       1.13406    0.63620    0.18506   1.00
H2       1.14902    0.63998    0.30255   1.00
H2       1.17481    0.61263    0.20615   1.00
H2       1.06220    0.65456    0.36958   1.00
H2       1.17515    0.52693    0.13617   1.00
H2       1.10993    0.67084    0.37975   1.00
H2       1.20070    0.57093    0.12851   1.00
H2       1.09027    0.67695    0.33261   1.00
H2       1.20099    0.54888    0.17498   1.00
