data_IRMOF10_SG202_interpen_Ligand9lp_label_u.

_audit_creation_method             'generated by an auxiliary program of Tobunporous'

_symmetry_space_group_name_H-M     'P 1'
_symmetry_Int_Tables_number        1
_symmetry_cell_setting             triclinic

_cell_length_a                    34.2800
_cell_length_b                    34.2800
_cell_length_c                    34.2800
_cell_angle_alpha                 90.0000
_cell_angle_beta                  90.0000
_cell_angle_gamma                 90.0000

loop_
_atom_site_label
_atom_site_fract_x
_atom_site_fract_y
_atom_site_fract_z
_atom_site_occupancy
O1       0.75000    0.75000    0.75000   1.00
Zn1      0.71720    0.78280    0.78280   1.00
Zn1      0.78280    0.71720    0.78280   1.00
Zn1      0.78280    0.78280    0.71720   1.00
Zn1      0.71720    0.71720    0.71720   1.00
O2       0.72650    0.77350    0.83820   1.00
O2       0.72650    0.83820    0.77350   1.00
O2       0.66180    0.77350    0.77350   1.00
O2       0.77350    0.72650    0.83820   1.00
O2       0.83820    0.72650    0.77350   1.00
O2       0.77350    0.66180    0.77350   1.00
O2       0.77350    0.83820    0.72650   1.00
O2       0.83820    0.77350    0.72650   1.00
O2       0.77350    0.77350    0.66180   1.00
O2       0.66180    0.72650    0.72650   1.00
O2       0.72650    0.66180    0.72650   1.00
O2       0.72650    0.72650    0.66180   1.00
C1       0.75000    0.75000    0.85520   1.00
C1       0.75000    0.85520    0.75000   1.00
C1       0.64480    0.75000    0.75000   1.00
C1       0.85520    0.75000    0.75000   1.00
C1       0.75000    0.64480    0.75000   1.00
C1       0.75000    0.75000    0.64480   1.00
O1       0.25000    0.25000    0.75000   1.00
Zn1      0.21720    0.28280    0.78280   1.00
Zn1      0.28280    0.21720    0.78280   1.00
Zn1      0.28280    0.28280    0.71720   1.00
Zn1      0.21720    0.21720    0.71720   1.00
O2       0.22650    0.27350    0.83820   1.00
O2       0.22650    0.33820    0.77350   1.00
O2       0.16180    0.27350    0.77350   1.00
O2       0.27350    0.22650    0.83820   1.00
O2       0.33820    0.22650    0.77350   1.00
O2       0.27350    0.16180    0.77350   1.00
O2       0.27350    0.33820    0.72650   1.00
O2       0.33820    0.27350    0.72650   1.00
O2       0.27350    0.27350    0.66180   1.00
O2       0.16180    0.22650    0.72650   1.00
O2       0.22650    0.16180    0.72650   1.00
O2       0.22650    0.22650    0.66180   1.00
C1       0.25000    0.25000    0.85520   1.00
C1       0.25000    0.35520    0.75000   1.00
C1       0.14480    0.25000    0.75000   1.00
C1       0.35520    0.25000    0.75000   1.00
C1       0.25000    0.14480    0.75000   1.00
C1       0.25000    0.25000    0.64480   1.00
O1       0.25000    0.75000    0.25000   1.00
Zn1      0.21720    0.78280    0.28280   1.00
Zn1      0.28280    0.71720    0.28280   1.00
Zn1      0.28280    0.78280    0.21720   1.00
Zn1      0.21720    0.71720    0.21720   1.00
O2       0.22650    0.77350    0.33820   1.00
O2       0.22650    0.83820    0.27350   1.00
O2       0.16180    0.77350    0.27350   1.00
O2       0.27350    0.72650    0.33820   1.00
O2       0.33820    0.72650    0.27350   1.00
O2       0.27350    0.66180    0.27350   1.00
O2       0.27350    0.83820    0.22650   1.00
O2       0.33820    0.77350    0.22650   1.00
O2       0.27350    0.77350    0.16180   1.00
O2       0.16180    0.72650    0.22650   1.00
O2       0.22650    0.66180    0.22650   1.00
O2       0.22650    0.72650    0.16180   1.00
C1       0.25000    0.75000    0.35520   1.00
C1       0.25000    0.85520    0.25000   1.00
C1       0.14480    0.75000    0.25000   1.00
C1       0.35520    0.75000    0.25000   1.00
C1       0.25000    0.64480    0.25000   1.00
C1       0.25000    0.75000    0.14480   1.00
O1       0.75000    0.25000    0.25000   1.00
Zn1      0.71720    0.28280    0.28280   1.00
Zn1      0.78280    0.21720    0.28280   1.00
Zn1      0.78280    0.28280    0.21720   1.00
Zn1      0.71720    0.21720    0.21720   1.00
O2       0.72650    0.27350    0.33820   1.00
O2       0.72650    0.33820    0.27350   1.00
O2       0.66180    0.27350    0.27350   1.00
O2       0.77350    0.22650    0.33820   1.00
O2       0.83820    0.22650    0.27350   1.00
O2       0.77350    0.16180    0.27350   1.00
O2       0.77350    0.33820    0.22650   1.00
O2       0.83820    0.27350    0.22650   1.00
O2       0.77350    0.27350    0.16180   1.00
O2       0.66180    0.22650    0.22650   1.00
O2       0.72650    0.16180    0.22650   1.00
O2       0.72650    0.22650    0.16180   1.00
C1       0.75000    0.25000    0.35520   1.00
C1       0.75000    0.35520    0.25000   1.00
C1       0.64480    0.25000    0.25000   1.00
C1       0.85520    0.25000    0.25000   1.00
C1       0.75000    0.14480    0.25000   1.00
C1       0.75000    0.25000    0.14480   1.00
O1       0.25000    0.25000    0.25000   1.00
Zn1      0.28280    0.21720    0.21720   1.00
Zn1      0.21720    0.28280    0.21720   1.00
Zn1      0.21720    0.21720    0.28280   1.00
Zn1      0.28280    0.28280    0.28280   1.00
O2       0.27350    0.22650    0.16180   1.00
O2       0.27350    0.16180    0.22650   1.00
O2       0.33820    0.22650    0.22650   1.00
O2       0.22650    0.27350    0.16180   1.00
O2       0.16180    0.27350    0.22650   1.00
O2       0.22650    0.33820    0.22650   1.00
O2       0.22650    0.16180    0.27350   1.00
O2       0.16180    0.22650    0.27350   1.00
O2       0.22650    0.22650    0.33820   1.00
O2       0.33820    0.27350    0.27350   1.00
O2       0.27350    0.33820    0.27350   1.00
O2       0.27350    0.27350    0.33820   1.00
C1       0.25000    0.25000    0.14480   1.00
C1       0.25000    0.14480    0.25000   1.00
C1       0.35520    0.25000    0.25000   1.00
C1       0.14480    0.25000    0.25000   1.00
C1       0.25000    0.35520    0.25000   1.00
C1       0.25000    0.25000    0.35520   1.00
O1       0.75000    0.75000    0.25000   1.00
Zn1      0.78280    0.71720    0.21720   1.00
Zn1      0.71720    0.78280    0.21720   1.00
Zn1      0.71720    0.71720    0.28280   1.00
Zn1      0.78280    0.78280    0.28280   1.00
O2       0.77350    0.72650    0.16180   1.00
O2       0.77350    0.66180    0.22650   1.00
O2       0.83820    0.72650    0.22650   1.00
O2       0.72650    0.77350    0.16180   1.00
O2       0.66180    0.77350    0.22650   1.00
O2       0.72650    0.83820    0.22650   1.00
O2       0.72650    0.66180    0.27350   1.00
O2       0.66180    0.72650    0.27350   1.00
O2       0.72650    0.72650    0.33820   1.00
O2       0.83820    0.77350    0.27350   1.00
O2       0.77350    0.83820    0.27350   1.00
O2       0.77350    0.77350    0.33820   1.00
C1       0.75000    0.75000    0.14480   1.00
C1       0.75000    0.64480    0.25000   1.00
C1       0.85520    0.75000    0.25000   1.00
C1       0.64480    0.75000    0.25000   1.00
C1       0.75000    0.85520    0.25000   1.00
C1       0.75000    0.75000    0.35520   1.00
O1       0.75000    0.25000    0.75000   1.00
Zn1      0.78280    0.21720    0.71720   1.00
Zn1      0.71720    0.28280    0.71720   1.00
Zn1      0.71720    0.21720    0.78280   1.00
Zn1      0.78280    0.28280    0.78280   1.00
O2       0.77350    0.22650    0.66180   1.00
O2       0.77350    0.16180    0.72650   1.00
O2       0.83820    0.22650    0.72650   1.00
O2       0.72650    0.27350    0.66180   1.00
O2       0.66180    0.27350    0.72650   1.00
O2       0.72650    0.33820    0.72650   1.00
O2       0.72650    0.16180    0.77350   1.00
O2       0.66180    0.22650    0.77350   1.00
O2       0.72650    0.22650    0.83820   1.00
O2       0.83820    0.27350    0.77350   1.00
O2       0.77350    0.33820    0.77350   1.00
O2       0.77350    0.27350    0.83820   1.00
C1       0.75000    0.25000    0.64480   1.00
C1       0.75000    0.14480    0.75000   1.00
C1       0.85520    0.25000    0.75000   1.00
C1       0.64480    0.25000    0.75000   1.00
C1       0.75000    0.35520    0.75000   1.00
C1       0.75000    0.25000    0.85520   1.00
O1       0.25000    0.75000    0.75000   1.00
Zn1      0.28280    0.71720    0.71720   1.00
Zn1      0.21720    0.78280    0.71720   1.00
Zn1      0.21720    0.71720    0.78280   1.00
Zn1      0.28280    0.78280    0.78280   1.00
O2       0.27350    0.72650    0.66180   1.00
O2       0.27350    0.66180    0.72650   1.00
O2       0.33820    0.72650    0.72650   1.00
O2       0.22650    0.77350    0.66180   1.00
O2       0.16180    0.77350    0.72650   1.00
O2       0.22650    0.83820    0.72650   1.00
O2       0.22650    0.66180    0.77350   1.00
O2       0.16180    0.72650    0.77350   1.00
O2       0.22650    0.72650    0.83820   1.00
O2       0.33820    0.77350    0.77350   1.00
O2       0.27350    0.83820    0.77350   1.00
O2       0.27350    0.77350    0.83820   1.00
C1       0.25000    0.75000    0.64480   1.00
C1       0.25000    0.64480    0.75000   1.00
C1       0.35520    0.75000    0.75000   1.00
C1       0.14480    0.75000    0.75000   1.00
C1       0.25000    0.85520    0.75000   1.00
C1       0.25000    0.75000    0.85520   1.00
O1       1.00000    1.00000    1.00000   1.00
Zn1      0.96720    1.03280    1.03280   1.00
Zn1      1.03280    0.96720    1.03280   1.00
Zn1      1.03280    1.03280    0.96720   1.00
Zn1      0.96720    0.96720    0.96720   1.00
O2       0.97650    1.02350    1.08820   1.00
O2       0.97650    1.08820    1.02350   1.00
O2       0.91180    1.02350    1.02350   1.00
O2       1.02350    0.97650    1.08820   1.00
O2       1.08820    0.97650    1.02350   1.00
O2       1.02350    0.91180    1.02350   1.00
O2       1.02350    1.08820    0.97650   1.00
O2       1.08820    1.02350    0.97650   1.00
O2       1.02350    1.02350    0.91180   1.00
O2       0.91180    0.97650    0.97650   1.00
O2       0.97650    0.91180    0.97650   1.00
O2       0.97650    0.97650    0.91180   1.00
C1       1.00000    1.00000    1.10520   1.00
C1       1.00000    1.10520    1.00000   1.00
C1       0.89480    1.00000    1.00000   1.00
C1       1.10520    1.00000    1.00000   1.00
C1       1.00000    0.89480    1.00000   1.00
C1       1.00000    1.00000    0.89480   1.00
O1       0.50000    0.50000    1.00000   1.00
Zn1      0.46720    0.53280    1.03280   1.00
Zn1      0.53280    0.46720    1.03280   1.00
Zn1      0.53280    0.53280    0.96720   1.00
Zn1      0.46720    0.46720    0.96720   1.00
O2       0.47650    0.52350    1.08820   1.00
O2       0.47650    0.58820    1.02350   1.00
O2       0.41180    0.52350    1.02350   1.00
O2       0.52350    0.47650    1.08820   1.00
O2       0.58820    0.47650    1.02350   1.00
O2       0.52350    0.41180    1.02350   1.00
O2       0.52350    0.58820    0.97650   1.00
O2       0.58820    0.52350    0.97650   1.00
O2       0.52350    0.52350    0.91180   1.00
O2       0.41180    0.47650    0.97650   1.00
O2       0.47650    0.41180    0.97650   1.00
O2       0.47650    0.47650    0.91180   1.00
C1       0.50000    0.50000    1.10520   1.00
C1       0.50000    0.60520    1.00000   1.00
C1       0.39480    0.50000    1.00000   1.00
C1       0.60520    0.50000    1.00000   1.00
C1       0.50000    0.39480    1.00000   1.00
C1       0.50000    0.50000    0.89480   1.00
O1       0.50000    1.00000    0.50000   1.00
Zn1      0.46720    1.03280    0.53280   1.00
Zn1      0.53280    0.96720    0.53280   1.00
Zn1      0.53280    1.03280    0.46720   1.00
Zn1      0.46720    0.96720    0.46720   1.00
O2       0.47650    1.02350    0.58820   1.00
O2       0.47650    1.08820    0.52350   1.00
O2       0.41180    1.02350    0.52350   1.00
O2       0.52350    0.97650    0.58820   1.00
O2       0.58820    0.97650    0.52350   1.00
O2       0.52350    0.91180    0.52350   1.00
O2       0.52350    1.08820    0.47650   1.00
O2       0.58820    1.02350    0.47650   1.00
O2       0.52350    1.02350    0.41180   1.00
O2       0.41180    0.97650    0.47650   1.00
O2       0.47650    0.91180    0.47650   1.00
O2       0.47650    0.97650    0.41180   1.00
C1       0.50000    1.00000    0.60520   1.00
C1       0.50000    1.10520    0.50000   1.00
C1       0.39480    1.00000    0.50000   1.00
C1       0.60520    1.00000    0.50000   1.00
C1       0.50000    0.89480    0.50000   1.00
C1       0.50000    1.00000    0.39480   1.00
O1       1.00000    0.50000    0.50000   1.00
Zn1      0.96720    0.53280    0.53280   1.00
Zn1      1.03280    0.46720    0.53280   1.00
Zn1      1.03280    0.53280    0.46720   1.00
Zn1      0.96720    0.46720    0.46720   1.00
O2       0.97650    0.52350    0.58820   1.00
O2       0.97650    0.58820    0.52350   1.00
O2       0.91180    0.52350    0.52350   1.00
O2       1.02350    0.47650    0.58820   1.00
O2       1.08820    0.47650    0.52350   1.00
O2       1.02350    0.41180    0.52350   1.00
O2       1.02350    0.58820    0.47650   1.00
O2       1.08820    0.52350    0.47650   1.00
O2       1.02350    0.52350    0.41180   1.00
O2       0.91180    0.47650    0.47650   1.00
O2       0.97650    0.41180    0.47650   1.00
O2       0.97650    0.47650    0.41180   1.00
C1       1.00000    0.50000    0.60520   1.00
C1       1.00000    0.60520    0.50000   1.00
C1       0.89480    0.50000    0.50000   1.00
C1       1.10520    0.50000    0.50000   1.00
C1       1.00000    0.39480    0.50000   1.00
C1       1.00000    0.50000    0.39480   1.00
O1       0.50000    0.50000    0.50000   1.00
Zn1      0.53280    0.46720    0.46720   1.00
Zn1      0.46720    0.53280    0.46720   1.00
Zn1      0.46720    0.46720    0.53280   1.00
Zn1      0.53280    0.53280    0.53280   1.00
O2       0.52350    0.47650    0.41180   1.00
O2       0.52350    0.41180    0.47650   1.00
O2       0.58820    0.47650    0.47650   1.00
O2       0.47650    0.52350    0.41180   1.00
O2       0.41180    0.52350    0.47650   1.00
O2       0.47650    0.58820    0.47650   1.00
O2       0.47650    0.41180    0.52350   1.00
O2       0.41180    0.47650    0.52350   1.00
O2       0.47650    0.47650    0.58820   1.00
O2       0.58820    0.52350    0.52350   1.00
O2       0.52350    0.58820    0.52350   1.00
O2       0.52350    0.52350    0.58820   1.00
C1       0.50000    0.50000    0.39480   1.00
C1       0.50000    0.39480    0.50000   1.00
C1       0.60520    0.50000    0.50000   1.00
C1       0.39480    0.50000    0.50000   1.00
C1       0.50000    0.60520    0.50000   1.00
C1       0.50000    0.50000    0.60520   1.00
O1       1.00000    1.00000    0.50000   1.00
Zn1      1.03280    0.96720    0.46720   1.00
Zn1      0.96720    1.03280    0.46720   1.00
Zn1      0.96720    0.96720    0.53280   1.00
Zn1      1.03280    1.03280    0.53280   1.00
O2       1.02350    0.97650    0.41180   1.00
O2       1.02350    0.91180    0.47650   1.00
O2       1.08820    0.97650    0.47650   1.00
O2       0.97650    1.02350    0.41180   1.00
O2       0.91180    1.02350    0.47650   1.00
O2       0.97650    1.08820    0.47650   1.00
O2       0.97650    0.91180    0.52350   1.00
O2       0.91180    0.97650    0.52350   1.00
O2       0.97650    0.97650    0.58820   1.00
O2       1.08820    1.02350    0.52350   1.00
O2       1.02350    1.08820    0.52350   1.00
O2       1.02350    1.02350    0.58820   1.00
C1       1.00000    1.00000    0.39480   1.00
C1       1.00000    0.89480    0.50000   1.00
C1       1.10520    1.00000    0.50000   1.00
C1       0.89480    1.00000    0.50000   1.00
C1       1.00000    1.10520    0.50000   1.00
C1       1.00000    1.00000    0.60520   1.00
O1       1.00000    0.50000    1.00000   1.00
Zn1      1.03280    0.46720    0.96720   1.00
Zn1      0.96720    0.53280    0.96720   1.00
Zn1      0.96720    0.46720    1.03280   1.00
Zn1      1.03280    0.53280    1.03280   1.00
O2       1.02350    0.47650    0.91180   1.00
O2       1.02350    0.41180    0.97650   1.00
O2       1.08820    0.47650    0.97650   1.00
O2       0.97650    0.52350    0.91180   1.00
O2       0.91180    0.52350    0.97650   1.00
O2       0.97650    0.58820    0.97650   1.00
O2       0.97650    0.41180    1.02350   1.00
O2       0.91180    0.47650    1.02350   1.00
O2       0.97650    0.47650    1.08820   1.00
O2       1.08820    0.52350    1.02350   1.00
O2       1.02350    0.58820    1.02350   1.00
O2       1.02350    0.52350    1.08820   1.00
C1       1.00000    0.50000    0.89480   1.00
C1       1.00000    0.39480    1.00000   1.00
C1       1.10520    0.50000    1.00000   1.00
C1       0.89480    0.50000    1.00000   1.00
C1       1.00000    0.60520    1.00000   1.00
C1       1.00000    0.50000    1.10520   1.00
O1       0.50000    1.00000    1.00000   1.00
Zn1      0.53280    0.96720    0.96720   1.00
Zn1      0.46720    1.03280    0.96720   1.00
Zn1      0.46720    0.96720    1.03280   1.00
Zn1      0.53280    1.03280    1.03280   1.00
O2       0.52350    0.97650    0.91180   1.00
O2       0.52350    0.91180    0.97650   1.00
O2       0.58820    0.97650    0.97650   1.00
O2       0.47650    1.02350    0.91180   1.00
O2       0.41180    1.02350    0.97650   1.00
O2       0.47650    1.08820    0.97650   1.00
O2       0.47650    0.91180    1.02350   1.00
O2       0.41180    0.97650    1.02350   1.00
O2       0.47650    0.97650    1.08820   1.00
O2       0.58820    1.02350    1.02350   1.00
O2       0.52350    1.08820    1.02350   1.00
O2       0.52350    1.02350    1.08820   1.00
C1       0.50000    1.00000    0.89480   1.00
C1       0.50000    0.89480    1.00000   1.00
C1       0.60520    1.00000    1.00000   1.00
C1       0.39480    1.00000    1.00000   1.00
C1       0.50000    1.10520    1.00000   1.00
C1       0.50000    1.00000    1.10520   1.00
C4       0.74924    0.75013    0.97917   1.00
C4       0.75076    0.74987    1.02083   1.00
C3       0.72235    0.77370    0.95846   1.00
C3       0.74631    0.78427    1.04321   1.00
C3       0.77527    0.72746    0.95643   1.00
C3       0.75588    0.71469    1.04187   1.00
C2       0.74762    0.75192    0.89487   1.00
C2       0.75219    0.74834    1.10514   1.00
C3       0.72158    0.77448    0.91715   1.00
C3       0.74709    0.78345    1.08449   1.00
C3       0.77441    0.72838    0.91514   1.00
C3a      0.75667    0.71374    1.08328   1.00
H1       0.70148    0.79140    0.97425   1.00
H1       0.74268    0.81212    1.02875   1.00
H1       0.70053    0.79283    0.90240   1.00
H1       0.74376    0.81045    1.10056   1.00
H1       0.79494    0.71078    0.89882   1.00
C5       0.76198    0.67526    1.10380   1.00
H1       0.75908    0.68747    1.02622   1.00
H1       0.79703    0.70944    0.97059   1.00
H2       0.76271    0.67923    1.13599   1.00
H2       0.73652    0.65634    1.09705   1.00
N1       0.79819    0.65645    1.09125   1.00
C6       0.83453    0.67047    1.09644   1.00
C6       0.80137    0.62186    1.07288   1.00
C6       0.86128    0.64466    1.08102   1.00
C6       0.84018    0.61374    1.06604   1.00
H3       0.84130    0.69796    1.11049   1.00
H3       0.77698    0.60346    1.06484   1.00
H3       0.89265    0.64799    1.08076   1.00
H3       0.85183    0.58812    1.05180   1.00
C4       0.75013    0.97917    0.74924   1.00
C4       0.74987    1.02083    0.75076   1.00
C3       0.77370    0.95846    0.72235   1.00
C3       0.78427    1.04321    0.74631   1.00
C3       0.72746    0.95643    0.77527   1.00
C3       0.71469    1.04187    0.75588   1.00
C2       0.75192    0.89487    0.74762   1.00
C2       0.74834    1.10514    0.75219   1.00
C3       0.77448    0.91715    0.72158   1.00
C3       0.78345    1.08449    0.74709   1.00
C3       0.72838    0.91514    0.77441   1.00
C3a      0.71374    1.08328    0.75667   1.00
H1       0.79140    0.97425    0.70148   1.00
H1       0.81212    1.02875    0.74268   1.00
H1       0.79283    0.90240    0.70053   1.00
H1       0.81045    1.10056    0.74376   1.00
H1       0.71078    0.89882    0.79494   1.00
C5       0.67526    1.10380    0.76198   1.00
H1       0.68747    1.02622    0.75908   1.00
H1       0.70944    0.97059    0.79703   1.00
H2       0.67923    1.13599    0.76271   1.00
H2       0.65634    1.09705    0.73652   1.00
N1       0.65645    1.09125    0.79819   1.00
C6       0.67047    1.09644    0.83453   1.00
C6       0.62186    1.07288    0.80137   1.00
C6       0.64466    1.08102    0.86128   1.00
C6       0.61374    1.06604    0.84018   1.00
H3       0.69796    1.11049    0.84130   1.00
H3       0.60346    1.06484    0.77698   1.00
H3       0.64799    1.08076    0.89265   1.00
H3       0.58812    1.05180    0.85183   1.00
C4       0.52083    0.74924    0.74987   1.00
C4       0.47917    0.75076    0.75013   1.00
C3       0.54154    0.72235    0.72630   1.00
C3       0.45679    0.74631    0.71573   1.00
C3       0.54357    0.77527    0.77254   1.00
C3       0.45813    0.75588    0.78531   1.00
C2       0.60513    0.74762    0.74808   1.00
C2       0.39486    0.75219    0.75166   1.00
C3       0.58285    0.72158    0.72552   1.00
C3       0.41551    0.74709    0.71655   1.00
C3       0.58486    0.77441    0.77162   1.00
C3a      0.41672    0.75667    0.78626   1.00
H1       0.52575    0.70148    0.70860   1.00
H1       0.47125    0.74268    0.68788   1.00
H1       0.59760    0.70053    0.70717   1.00
H1       0.39944    0.74376    0.68955   1.00
H1       0.60118    0.79494    0.78922   1.00
C5       0.39620    0.76198    0.82474   1.00
H1       0.47378    0.75908    0.81253   1.00
H1       0.52941    0.79703    0.79056   1.00
H2       0.36401    0.76271    0.82077   1.00
H2       0.40295    0.73652    0.84366   1.00
N1       0.40875    0.79819    0.84355   1.00
C6       0.40356    0.83453    0.82953   1.00
C6       0.42712    0.80137    0.87814   1.00
C6       0.41898    0.86128    0.85534   1.00
C6       0.43396    0.84018    0.88626   1.00
H3       0.38951    0.84130    0.80204   1.00
H3       0.43516    0.77698    0.89654   1.00
H3       0.41924    0.89265    0.85201   1.00
H3       0.44820    0.85183    0.91188   1.00
C4       0.97917    0.74924    0.75013   1.00
C4       1.02083    0.75076    0.74987   1.00
C3       0.95846    0.72235    0.77370   1.00
C3       1.04321    0.74631    0.78427   1.00
C3       0.95643    0.77527    0.72746   1.00
C3       1.04187    0.75588    0.71469   1.00
C2       0.89487    0.74762    0.75192   1.00
C2       1.10514    0.75219    0.74834   1.00
C3       0.91715    0.72158    0.77448   1.00
C3       1.08449    0.74709    0.78345   1.00
C3       0.91514    0.77441    0.72838   1.00
C3a      1.08328    0.75667    0.71374   1.00
H1       0.97425    0.70148    0.79140   1.00
H1       1.02875    0.74268    0.81212   1.00
H1       0.90240    0.70053    0.79283   1.00
H1       1.10056    0.74376    0.81045   1.00
H1       0.89882    0.79494    0.71078   1.00
C5       1.10380    0.76198    0.67526   1.00
H1       1.02622    0.75908    0.68747   1.00
H1       0.97059    0.79703    0.70944   1.00
H2       1.13599    0.76271    0.67923   1.00
H2       1.09705    0.73652    0.65634   1.00
N1       1.09125    0.79819    0.65645   1.00
C6       1.09644    0.83453    0.67047   1.00
C6       1.07288    0.80137    0.62186   1.00
C6       1.08102    0.86128    0.64466   1.00
C6       1.06604    0.84018    0.61374   1.00
H3       1.11049    0.84130    0.69796   1.00
H3       1.06484    0.77698    0.60346   1.00
H3       1.08076    0.89265    0.64799   1.00
H3       1.05180    0.85183    0.58812   1.00
C4       0.74987    0.52083    0.74924   1.00
C4       0.75013    0.47917    0.75076   1.00
C3       0.72630    0.54154    0.72235   1.00
C3       0.71573    0.45679    0.74631   1.00
C3       0.77254    0.54357    0.77527   1.00
C3       0.78531    0.45813    0.75588   1.00
C2       0.74808    0.60513    0.74762   1.00
C2       0.75166    0.39486    0.75219   1.00
C3       0.72552    0.58285    0.72158   1.00
C3       0.71655    0.41551    0.74709   1.00
C3       0.77162    0.58486    0.77441   1.00
C3a      0.78626    0.41672    0.75667   1.00
H1       0.70860    0.52575    0.70148   1.00
H1       0.68788    0.47125    0.74268   1.00
H1       0.70717    0.59760    0.70053   1.00
H1       0.68955    0.39944    0.74376   1.00
H1       0.78922    0.60118    0.79494   1.00
C5       0.82474    0.39620    0.76198   1.00
H1       0.81253    0.47378    0.75908   1.00
H1       0.79056    0.52941    0.79703   1.00
H2       0.82077    0.36401    0.76271   1.00
H2       0.84366    0.40295    0.73652   1.00
N1       0.84355    0.40875    0.79819   1.00
C6       0.82953    0.40356    0.83453   1.00
C6       0.87814    0.42712    0.80137   1.00
C6       0.85534    0.41898    0.86128   1.00
C6       0.88626    0.43396    0.84018   1.00
H3       0.80204    0.38951    0.84130   1.00
H3       0.89654    0.43516    0.77698   1.00
H3       0.85201    0.41924    0.89265   1.00
H3       0.91188    0.44820    0.85183   1.00
C4       0.74924    0.74987    0.52083   1.00
C4       0.75076    0.75013    0.47917   1.00
C3       0.72235    0.72630    0.54154   1.00
C3       0.74631    0.71573    0.45679   1.00
C3       0.77527    0.77254    0.54357   1.00
C3       0.75588    0.78531    0.45813   1.00
C2       0.74762    0.74808    0.60513   1.00
C2       0.75219    0.75166    0.39486   1.00
C3       0.72158    0.72552    0.58285   1.00
C3       0.74709    0.71655    0.41551   1.00
C3       0.77441    0.77162    0.58486   1.00
C3a      0.75667    0.78626    0.41672   1.00
H1       0.70148    0.70860    0.52575   1.00
H1       0.74268    0.68788    0.47125   1.00
H1       0.70053    0.70717    0.59760   1.00
H1       0.74376    0.68955    0.39944   1.00
H1       0.79494    0.78922    0.60118   1.00
C5       0.76198    0.82474    0.39620   1.00
H1       0.75908    0.81253    0.47378   1.00
H1       0.79703    0.79056    0.52941   1.00
H2       0.76271    0.82077    0.36401   1.00
H2       0.73652    0.84366    0.40295   1.00
N1       0.79819    0.84355    0.40875   1.00
C6       0.83453    0.82953    0.40356   1.00
C6       0.80137    0.87814    0.42712   1.00
C6       0.86128    0.85534    0.41898   1.00
C6       0.84018    0.88626    0.43396   1.00
H3       0.84130    0.80204    0.38951   1.00
H3       0.77698    0.89654    0.43516   1.00
H3       0.89265    0.85201    0.41924   1.00
H3       0.85183    0.91188    0.44820   1.00
C4       0.24924    0.25013    0.97917   1.00
C4       0.25076    0.24987    1.02083   1.00
C3       0.22235    0.27370    0.95846   1.00
C3       0.24631    0.28427    1.04321   1.00
C3       0.27527    0.22746    0.95643   1.00
C3       0.25588    0.21469    1.04187   1.00
C2       0.24762    0.25192    0.89487   1.00
C2       0.25219    0.24834    1.10514   1.00
C3       0.22158    0.27448    0.91715   1.00
C3       0.24709    0.28345    1.08449   1.00
C3       0.27441    0.22838    0.91514   1.00
C3a      0.25667    0.21374    1.08328   1.00
H1       0.20148    0.29140    0.97425   1.00
H1       0.24268    0.31212    1.02875   1.00
H1       0.20053    0.29283    0.90240   1.00
H1       0.24376    0.31045    1.10056   1.00
H1       0.29494    0.21078    0.89882   1.00
C5       0.26198    0.17526    1.10380   1.00
H1       0.25908    0.18747    1.02622   1.00
H1       0.29703    0.20944    0.97059   1.00
H2       0.26271    0.17923    1.13599   1.00
H2       0.23652    0.15634    1.09705   1.00
N1       0.29819    0.15645    1.09125   1.00
C6       0.33453    0.17047    1.09644   1.00
C6       0.30137    0.12186    1.07288   1.00
C6       0.36128    0.14466    1.08102   1.00
C6       0.34018    0.11374    1.06604   1.00
H3       0.34130    0.19796    1.11049   1.00
H3       0.27698    0.10346    1.06484   1.00
H3       0.39265    0.14799    1.08076   1.00
H3       0.35183    0.08812    1.05180   1.00
C4       0.25013    0.47917    0.74924   1.00
C4       0.24987    0.52083    0.75076   1.00
C3       0.27370    0.45846    0.72235   1.00
C3       0.28427    0.54321    0.74631   1.00
C3       0.22746    0.45643    0.77527   1.00
C3       0.21469    0.54187    0.75588   1.00
C2       0.25192    0.39487    0.74762   1.00
C2       0.24834    0.60514    0.75219   1.00
C3       0.27448    0.41715    0.72158   1.00
C3       0.28345    0.58449    0.74709   1.00
C3       0.22838    0.41514    0.77441   1.00
C3a      0.21374    0.58328    0.75667   1.00
H1       0.29140    0.47425    0.70148   1.00
H1       0.31212    0.52875    0.74268   1.00
H1       0.29283    0.40240    0.70053   1.00
H1       0.31045    0.60056    0.74376   1.00
H1       0.21078    0.39882    0.79494   1.00
C5       0.17526    0.60380    0.76198   1.00
H1       0.18747    0.52622    0.75908   1.00
H1       0.20944    0.47059    0.79703   1.00
H2       0.17923    0.63599    0.76271   1.00
H2       0.15634    0.59705    0.73652   1.00
N1       0.15645    0.59125    0.79819   1.00
C6       0.17047    0.59644    0.83453   1.00
C6       0.12186    0.57288    0.80137   1.00
C6       0.14466    0.58102    0.86128   1.00
C6       0.11374    0.56604    0.84018   1.00
H3       0.19796    0.61049    0.84130   1.00
H3       0.10346    0.56484    0.77698   1.00
H3       0.14799    0.58076    0.89265   1.00
H3       0.08812    0.55180    0.85183   1.00
C4       0.02083    0.24924    0.74987   1.00
C4       -0.02083   0.25076    0.75013   1.00
C3       0.04154    0.22235    0.72630   1.00
C3       -0.04321   0.24631    0.71573   1.00
C3       0.04357    0.27527    0.77254   1.00
C3       -0.04187   0.25588    0.78531   1.00
C2       0.10513    0.24762    0.74808   1.00
C2       -0.10514   0.25219    0.75166   1.00
C3       0.08285    0.22158    0.72552   1.00
C3       -0.08449   0.24709    0.71655   1.00
C3       0.08486    0.27441    0.77162   1.00
C3a      -0.08328   0.25667    0.78626   1.00
H1       0.02575    0.20148    0.70860   1.00
H1       -0.02875   0.24268    0.68788   1.00
H1       0.09760    0.20053    0.70717   1.00
H1       -0.10056   0.24376    0.68955   1.00
H1       0.10118    0.29494    0.78922   1.00
C5       -0.10380   0.26198    0.82474   1.00
H1       -0.02622   0.25908    0.81253   1.00
H1       0.02941    0.29703    0.79056   1.00
H2       -0.13599   0.26271    0.82077   1.00
H2       -0.09705   0.23652    0.84366   1.00
N1       -0.09125   0.29819    0.84355   1.00
C6       -0.09644   0.33453    0.82953   1.00
C6       -0.07288   0.30137    0.87814   1.00
C6       -0.08102   0.36128    0.85534   1.00
C6       -0.06604   0.34018    0.88626   1.00
H3       -0.11049   0.34130    0.80204   1.00
H3       -0.06484   0.27698    0.89654   1.00
H3       -0.08076   0.39265    0.85201   1.00
H3       -0.05180   0.35183    0.91188   1.00
C4       0.47917    0.24924    0.75013   1.00
C4       0.52083    0.25076    0.74987   1.00
C3       0.45846    0.22235    0.77370   1.00
C3       0.54321    0.24631    0.78427   1.00
C3       0.45643    0.27527    0.72746   1.00
C3       0.54187    0.25588    0.71469   1.00
C2       0.39487    0.24762    0.75192   1.00
C2       0.60514    0.25219    0.74834   1.00
C3       0.41715    0.22158    0.77448   1.00
C3       0.58449    0.24709    0.78345   1.00
C3       0.41514    0.27441    0.72838   1.00
C3a      0.58328    0.25667    0.71374   1.00
H1       0.47425    0.20148    0.79140   1.00
H1       0.52875    0.24268    0.81212   1.00
H1       0.40240    0.20053    0.79283   1.00
H1       0.60056    0.24376    0.81045   1.00
H1       0.39882    0.29494    0.71078   1.00
C5       0.60380    0.26198    0.67526   1.00
H1       0.52622    0.25908    0.68747   1.00
H1       0.47059    0.29703    0.70944   1.00
H2       0.63599    0.26271    0.67923   1.00
H2       0.59705    0.23652    0.65634   1.00
N1       0.59125    0.29819    0.65645   1.00
C6       0.59644    0.33453    0.67047   1.00
C6       0.57288    0.30137    0.62186   1.00
C6       0.58102    0.36128    0.64466   1.00
C6       0.56604    0.34018    0.61374   1.00
H3       0.61049    0.34130    0.69796   1.00
H3       0.56484    0.27698    0.60346   1.00
H3       0.58076    0.39265    0.64799   1.00
H3       0.55180    0.35183    0.58812   1.00
C4       0.24987    0.02083    0.74924   1.00
C4       0.25013    -0.02083   0.75076   1.00
C3       0.22630    0.04154    0.72235   1.00
C3       0.21573    -0.04321   0.74631   1.00
C3       0.27254    0.04357    0.77527   1.00
C3       0.28531    -0.04187   0.75588   1.00
C2       0.24808    0.10513    0.74762   1.00
C2       0.25166    -0.10514   0.75219   1.00
C3       0.22552    0.08285    0.72158   1.00
C3       0.21655    -0.08449   0.74709   1.00
C3       0.27162    0.08486    0.77441   1.00
C3a      0.28626    -0.08328   0.75667   1.00
H1       0.20860    0.02575    0.70148   1.00
H1       0.18788    -0.02875   0.74268   1.00
H1       0.20717    0.09760    0.70053   1.00
H1       0.18955    -0.10056   0.74376   1.00
H1       0.28922    0.10118    0.79494   1.00
C5       0.32474    -0.10380   0.76198   1.00
H1       0.31253    -0.02622   0.75908   1.00
H1       0.29056    0.02941    0.79703   1.00
H2       0.32077    -0.13599   0.76271   1.00
H2       0.34366    -0.09705   0.73652   1.00
N1       0.34355    -0.09125   0.79819   1.00
C6       0.32953    -0.09644   0.83453   1.00
C6       0.37814    -0.07288   0.80137   1.00
C6       0.35534    -0.08102   0.86128   1.00
C6       0.38626    -0.06604   0.84018   1.00
H3       0.30204    -0.11049   0.84130   1.00
H3       0.39654    -0.06484   0.77698   1.00
H3       0.35201    -0.08076   0.89265   1.00
H3       0.41188    -0.05180   0.85183   1.00
C4       0.24924    0.24987    0.52083   1.00
C4       0.25076    0.25013    0.47917   1.00
C3       0.22235    0.22630    0.54154   1.00
C3       0.24631    0.21573    0.45679   1.00
C3       0.27527    0.27254    0.54357   1.00
C3       0.25588    0.28531    0.45813   1.00
C2       0.24762    0.24808    0.60513   1.00
C2       0.25219    0.25166    0.39486   1.00
C3       0.22158    0.22552    0.58285   1.00
C3       0.24709    0.21655    0.41551   1.00
C3       0.27441    0.27162    0.58486   1.00
C3a      0.25667    0.28626    0.41672   1.00
H1       0.20148    0.20860    0.52575   1.00
H1       0.24268    0.18788    0.47125   1.00
H1       0.20053    0.20717    0.59760   1.00
H1       0.24376    0.18955    0.39944   1.00
H1       0.29494    0.28922    0.60118   1.00
C5       0.26198    0.32474    0.39620   1.00
H1       0.25908    0.31253    0.47378   1.00
H1       0.29703    0.29056    0.52941   1.00
H2       0.26271    0.32077    0.36401   1.00
H2       0.23652    0.34366    0.40295   1.00
N1       0.29819    0.34355    0.40875   1.00
C6       0.33453    0.32953    0.40356   1.00
C6       0.30137    0.37814    0.42712   1.00
C6       0.36128    0.35534    0.41898   1.00
C6       0.34018    0.38626    0.43396   1.00
H3       0.34130    0.30204    0.38951   1.00
H3       0.27698    0.39654    0.43516   1.00
H3       0.39265    0.35201    0.41924   1.00
H3       0.35183    0.41188    0.44820   1.00
C4       0.24924    0.75013    0.47917   1.00
C4       0.25076    0.74987    0.52083   1.00
C3       0.22235    0.77370    0.45846   1.00
C3       0.24631    0.78427    0.54321   1.00
C3       0.27527    0.72746    0.45643   1.00
C3       0.25588    0.71469    0.54187   1.00
C2       0.24762    0.75192    0.39487   1.00
C2       0.25219    0.74834    0.60514   1.00
C3       0.22158    0.77448    0.41715   1.00
C3       0.24709    0.78345    0.58449   1.00
C3       0.27441    0.72838    0.41514   1.00
C3a      0.25667    0.71374    0.58328   1.00
H1       0.20148    0.79140    0.47425   1.00
H1       0.24268    0.81212    0.52875   1.00
H1       0.20053    0.79283    0.40240   1.00
H1       0.24376    0.81045    0.60056   1.00
H1       0.29494    0.71078    0.39882   1.00
C5       0.26198    0.67526    0.60380   1.00
H1       0.25908    0.68747    0.52622   1.00
H1       0.29703    0.70944    0.47059   1.00
H2       0.26271    0.67923    0.63599   1.00
H2       0.23652    0.65634    0.59705   1.00
N1       0.29819    0.65645    0.59125   1.00
C6       0.33453    0.67047    0.59644   1.00
C6       0.30137    0.62186    0.57288   1.00
C6       0.36128    0.64466    0.58102   1.00
C6       0.34018    0.61374    0.56604   1.00
H3       0.34130    0.69796    0.61049   1.00
H3       0.27698    0.60346    0.56484   1.00
H3       0.39265    0.64799    0.58076   1.00
H3       0.35183    0.58812    0.55180   1.00
C4       0.25013    0.97917    0.24924   1.00
C4       0.24987    1.02083    0.25076   1.00
C3       0.27370    0.95846    0.22235   1.00
C3       0.28427    1.04321    0.24631   1.00
C3       0.22746    0.95643    0.27527   1.00
C3       0.21469    1.04187    0.25588   1.00
C2       0.25192    0.89487    0.24762   1.00
C2       0.24834    1.10514    0.25219   1.00
C3       0.27448    0.91715    0.22158   1.00
C3       0.28345    1.08449    0.24709   1.00
C3       0.22838    0.91514    0.27441   1.00
C3a      0.21374    1.08328    0.25667   1.00
H1       0.29140    0.97425    0.20148   1.00
H1       0.31212    1.02875    0.24268   1.00
H1       0.29283    0.90240    0.20053   1.00
H1       0.31045    1.10056    0.24376   1.00
H1       0.21078    0.89882    0.29494   1.00
C5       0.17526    1.10380    0.26198   1.00
H1       0.18747    1.02622    0.25908   1.00
H1       0.20944    0.97059    0.29703   1.00
H2       0.17923    1.13599    0.26271   1.00
H2       0.15634    1.09705    0.23652   1.00
N1       0.15645    1.09125    0.29819   1.00
C6       0.17047    1.09644    0.33453   1.00
C6       0.12186    1.07288    0.30137   1.00
C6       0.14466    1.08102    0.36128   1.00
C6       0.11374    1.06604    0.34018   1.00
H3       0.19796    1.11049    0.34130   1.00
H3       0.10346    1.06484    0.27698   1.00
H3       0.14799    1.08076    0.39265   1.00
H3       0.08812    1.05180    0.35183   1.00
C4       0.02083    0.74924    0.24987   1.00
C4       -0.02083   0.75076    0.25013   1.00
C3       0.04154    0.72235    0.22630   1.00
C3       -0.04321   0.74631    0.21573   1.00
C3       0.04357    0.77527    0.27254   1.00
C3       -0.04187   0.75588    0.28531   1.00
C2       0.10513    0.74762    0.24808   1.00
C2       -0.10514   0.75219    0.25166   1.00
C3       0.08285    0.72158    0.22552   1.00
C3       -0.08449   0.74709    0.21655   1.00
C3       0.08486    0.77441    0.27162   1.00
C3a      -0.08328   0.75667    0.28626   1.00
H1       0.02575    0.70148    0.20860   1.00
H1       -0.02875   0.74268    0.18788   1.00
H1       0.09760    0.70053    0.20717   1.00
H1       -0.10056   0.74376    0.18955   1.00
H1       0.10118    0.79494    0.28922   1.00
C5       -0.10380   0.76198    0.32474   1.00
H1       -0.02622   0.75908    0.31253   1.00
H1       0.02941    0.79703    0.29056   1.00
H2       -0.13599   0.76271    0.32077   1.00
H2       -0.09705   0.73652    0.34366   1.00
N1       -0.09125   0.79819    0.34355   1.00
C6       -0.09644   0.83453    0.32953   1.00
C6       -0.07288   0.80137    0.37814   1.00
C6       -0.08102   0.86128    0.35534   1.00
C6       -0.06604   0.84018    0.38626   1.00
H3       -0.11049   0.84130    0.30204   1.00
H3       -0.06484   0.77698    0.39654   1.00
H3       -0.08076   0.89265    0.35201   1.00
H3       -0.05180   0.85183    0.41188   1.00
C4       0.47917    0.74924    0.25013   1.00
C4       0.52083    0.75076    0.24987   1.00
C3       0.45846    0.72235    0.27370   1.00
C3       0.54321    0.74631    0.28427   1.00
C3       0.45643    0.77527    0.22746   1.00
C3       0.54187    0.75588    0.21469   1.00
C2       0.39487    0.74762    0.25192   1.00
C2       0.60514    0.75219    0.24834   1.00
C3       0.41715    0.72158    0.27448   1.00
C3       0.58449    0.74709    0.28345   1.00
C3       0.41514    0.77441    0.22838   1.00
C3a      0.58328    0.75667    0.21374   1.00
H1       0.47425    0.70148    0.29140   1.00
H1       0.52875    0.74268    0.31212   1.00
H1       0.40240    0.70053    0.29283   1.00
H1       0.60056    0.74376    0.31045   1.00
H1       0.39882    0.79494    0.21078   1.00
C5       0.60380    0.76198    0.17526   1.00
H1       0.52622    0.75908    0.18747   1.00
H1       0.47059    0.79703    0.20944   1.00
H2       0.63599    0.76271    0.17923   1.00
H2       0.59705    0.73652    0.15634   1.00
N1       0.59125    0.79819    0.15645   1.00
C6       0.59644    0.83453    0.17047   1.00
C6       0.57288    0.80137    0.12186   1.00
C6       0.58102    0.86128    0.14466   1.00
C6       0.56604    0.84018    0.11374   1.00
H3       0.61049    0.84130    0.19796   1.00
H3       0.56484    0.77698    0.10346   1.00
H3       0.58076    0.89265    0.14799   1.00
H3       0.55180    0.85183    0.08812   1.00
C4       0.24987    0.52083    0.24924   1.00
C4       0.25013    0.47917    0.25076   1.00
C3       0.22630    0.54154    0.22235   1.00
C3       0.21573    0.45679    0.24631   1.00
C3       0.27254    0.54357    0.27527   1.00
C3       0.28531    0.45813    0.25588   1.00
C2       0.24808    0.60513    0.24762   1.00
C2       0.25166    0.39486    0.25219   1.00
C3       0.22552    0.58285    0.22158   1.00
C3       0.21655    0.41551    0.24709   1.00
C3       0.27162    0.58486    0.27441   1.00
C3a      0.28626    0.41672    0.25667   1.00
H1       0.20860    0.52575    0.20148   1.00
H1       0.18788    0.47125    0.24268   1.00
H1       0.20717    0.59760    0.20053   1.00
H1       0.18955    0.39944    0.24376   1.00
H1       0.28922    0.60118    0.29494   1.00
C5       0.32474    0.39620    0.26198   1.00
H1       0.31253    0.47378    0.25908   1.00
H1       0.29056    0.52941    0.29703   1.00
H2       0.32077    0.36401    0.26271   1.00
H2       0.34366    0.40295    0.23652   1.00
N1       0.34355    0.40875    0.29819   1.00
C6       0.32953    0.40356    0.33453   1.00
C6       0.37814    0.42712    0.30137   1.00
C6       0.35534    0.41898    0.36128   1.00
C6       0.38626    0.43396    0.34018   1.00
H3       0.30204    0.38951    0.34130   1.00
H3       0.39654    0.43516    0.27698   1.00
H3       0.35201    0.41924    0.39265   1.00
H3       0.41188    0.44820    0.35183   1.00
C4       0.24924    0.74987    0.02083   1.00
C4       0.25076    0.75013    -0.02083   1.00
C3       0.22235    0.72630    0.04154   1.00
C3       0.24631    0.71573    -0.04321   1.00
C3       0.27527    0.77254    0.04357   1.00
C3       0.25588    0.78531    -0.04187   1.00
C2       0.24762    0.74808    0.10513   1.00
C2       0.25219    0.75166    -0.10514   1.00
C3       0.22158    0.72552    0.08285   1.00
C3       0.24709    0.71655    -0.08449   1.00
C3       0.27441    0.77162    0.08486   1.00
C3a      0.25667    0.78626    -0.08328   1.00
H1       0.20148    0.70860    0.02575   1.00
H1       0.24268    0.68788    -0.02875   1.00
H1       0.20053    0.70717    0.09760   1.00
H1       0.24376    0.68955    -0.10056   1.00
H1       0.29494    0.78922    0.10118   1.00
C5       0.26198    0.82474    -0.10380   1.00
H1       0.25908    0.81253    -0.02622   1.00
H1       0.29703    0.79056    0.02941   1.00
H2       0.26271    0.82077    -0.13599   1.00
H2       0.23652    0.84366    -0.09705   1.00
N1       0.29819    0.84355    -0.09125   1.00
C6       0.33453    0.82953    -0.09644   1.00
C6       0.30137    0.87814    -0.07288   1.00
C6       0.36128    0.85534    -0.08102   1.00
C6       0.34018    0.88626    -0.06604   1.00
H3       0.34130    0.80204    -0.11049   1.00
H3       0.27698    0.89654    -0.06484   1.00
H3       0.39265    0.85201    -0.08076   1.00
H3       0.35183    0.91188    -0.05180   1.00
C4       0.74924    0.25013    0.47917   1.00
C4       0.75076    0.24987    0.52083   1.00
C3       0.72235    0.27370    0.45846   1.00
C3       0.74631    0.28427    0.54321   1.00
C3       0.77527    0.22746    0.45643   1.00
C3       0.75588    0.21469    0.54187   1.00
C2       0.74762    0.25192    0.39487   1.00
C2       0.75219    0.24834    0.60514   1.00
C3       0.72158    0.27448    0.41715   1.00
C3       0.74709    0.28345    0.58449   1.00
C3       0.77441    0.22838    0.41514   1.00
C3a      0.75667    0.21374    0.58328   1.00
H1       0.70148    0.29140    0.47425   1.00
H1       0.74268    0.31212    0.52875   1.00
H1       0.70053    0.29283    0.40240   1.00
H1       0.74376    0.31045    0.60056   1.00
H1       0.79494    0.21078    0.39882   1.00
C5       0.76198    0.17526    0.60380   1.00
H1       0.75908    0.18747    0.52622   1.00
H1       0.79703    0.20944    0.47059   1.00
H2       0.76271    0.17923    0.63599   1.00
H2       0.73652    0.15634    0.59705   1.00
N1       0.79819    0.15645    0.59125   1.00
C6       0.83453    0.17047    0.59644   1.00
C6       0.80137    0.12186    0.57288   1.00
C6       0.86128    0.14466    0.58102   1.00
C6       0.84018    0.11374    0.56604   1.00
H3       0.84130    0.19796    0.61049   1.00
H3       0.77698    0.10346    0.56484   1.00
H3       0.89265    0.14799    0.58076   1.00
H3       0.85183    0.08812    0.55180   1.00
C4       0.75013    0.47917    0.24924   1.00
C4       0.74987    0.52083    0.25076   1.00
C3       0.77370    0.45846    0.22235   1.00
C3       0.78427    0.54321    0.24631   1.00
C3       0.72746    0.45643    0.27527   1.00
C3       0.71469    0.54187    0.25588   1.00
C2       0.75192    0.39487    0.24762   1.00
C2       0.74834    0.60514    0.25219   1.00
C3       0.77448    0.41715    0.22158   1.00
C3       0.78345    0.58449    0.24709   1.00
C3       0.72838    0.41514    0.27441   1.00
C3a      0.71374    0.58328    0.25667   1.00
H1       0.79140    0.47425    0.20148   1.00
H1       0.81212    0.52875    0.24268   1.00
H1       0.79283    0.40240    0.20053   1.00
H1       0.81045    0.60056    0.24376   1.00
H1       0.71078    0.39882    0.29494   1.00
C5       0.67526    0.60380    0.26198   1.00
H1       0.68747    0.52622    0.25908   1.00
H1       0.70944    0.47059    0.29703   1.00
H2       0.67923    0.63599    0.26271   1.00
H2       0.65634    0.59705    0.23652   1.00
N1       0.65645    0.59125    0.29819   1.00
C6       0.67047    0.59644    0.33453   1.00
C6       0.62186    0.57288    0.30137   1.00
C6       0.64466    0.58102    0.36128   1.00
C6       0.61374    0.56604    0.34018   1.00
H3       0.69796    0.61049    0.34130   1.00
H3       0.60346    0.56484    0.27698   1.00
H3       0.64799    0.58076    0.39265   1.00
H3       0.58812    0.55180    0.35183   1.00
C4       0.52083    0.24924    0.24987   1.00
C4       0.47917    0.25076    0.25013   1.00
C3       0.54154    0.22235    0.22630   1.00
C3       0.45679    0.24631    0.21573   1.00
C3       0.54357    0.27527    0.27254   1.00
C3       0.45813    0.25588    0.28531   1.00
C2       0.60513    0.24762    0.24808   1.00
C2       0.39486    0.25219    0.25166   1.00
C3       0.58285    0.22158    0.22552   1.00
C3       0.41551    0.24709    0.21655   1.00
C3       0.58486    0.27441    0.27162   1.00
C3a      0.41672    0.25667    0.28626   1.00
H1       0.52575    0.20148    0.20860   1.00
H1       0.47125    0.24268    0.18788   1.00
H1       0.59760    0.20053    0.20717   1.00
H1       0.39944    0.24376    0.18955   1.00
H1       0.60118    0.29494    0.28922   1.00
C5       0.39620    0.26198    0.32474   1.00
H1       0.47378    0.25908    0.31253   1.00
H1       0.52941    0.29703    0.29056   1.00
H2       0.36401    0.26271    0.32077   1.00
H2       0.40295    0.23652    0.34366   1.00
N1       0.40875    0.29819    0.34355   1.00
C6       0.40356    0.33453    0.32953   1.00
C6       0.42712    0.30137    0.37814   1.00
C6       0.41898    0.36128    0.35534   1.00
C6       0.43396    0.34018    0.38626   1.00
H3       0.38951    0.34130    0.30204   1.00
H3       0.43516    0.27698    0.39654   1.00
H3       0.41924    0.39265    0.35201   1.00
H3       0.44820    0.35183    0.41188   1.00
C4       0.97917    0.24924    0.25013   1.00
C4       1.02083    0.25076    0.24987   1.00
C3       0.95846    0.22235    0.27370   1.00
C3       1.04321    0.24631    0.28427   1.00
C3       0.95643    0.27527    0.22746   1.00
C3       1.04187    0.25588    0.21469   1.00
C2       0.89487    0.24762    0.25192   1.00
C2       1.10514    0.25219    0.24834   1.00
C3       0.91715    0.22158    0.27448   1.00
C3       1.08449    0.24709    0.28345   1.00
C3       0.91514    0.27441    0.22838   1.00
C3a      1.08328    0.25667    0.21374   1.00
H1       0.97425    0.20148    0.29140   1.00
H1       1.02875    0.24268    0.31212   1.00
H1       0.90240    0.20053    0.29283   1.00
H1       1.10056    0.24376    0.31045   1.00
H1       0.89882    0.29494    0.21078   1.00
C5       1.10380    0.26198    0.17526   1.00
H1       1.02622    0.25908    0.18747   1.00
H1       0.97059    0.29703    0.20944   1.00
H2       1.13599    0.26271    0.17923   1.00
H2       1.09705    0.23652    0.15634   1.00
N1       1.09125    0.29819    0.15645   1.00
C6       1.09644    0.33453    0.17047   1.00
C6       1.07288    0.30137    0.12186   1.00
C6       1.08102    0.36128    0.14466   1.00
C6       1.06604    0.34018    0.11374   1.00
H3       1.11049    0.34130    0.19796   1.00
H3       1.06484    0.27698    0.10346   1.00
H3       1.08076    0.39265    0.14799   1.00
H3       1.05180    0.35183    0.08812   1.00
C4       0.74987    0.02083    0.24924   1.00
C4       0.75013    -0.02083   0.25076   1.00
C3       0.72630    0.04154    0.22235   1.00
C3       0.71573    -0.04321   0.24631   1.00
C3       0.77254    0.04357    0.27527   1.00
C3       0.78531    -0.04187   0.25588   1.00
C2       0.74808    0.10513    0.24762   1.00
C2       0.75166    -0.10514   0.25219   1.00
C3       0.72552    0.08285    0.22158   1.00
C3       0.71655    -0.08449   0.24709   1.00
C3       0.77162    0.08486    0.27441   1.00
C3a      0.78626    -0.08328   0.25667   1.00
H1       0.70860    0.02575    0.20148   1.00
H1       0.68788    -0.02875   0.24268   1.00
H1       0.70717    0.09760    0.20053   1.00
H1       0.68955    -0.10056   0.24376   1.00
H1       0.78922    0.10118    0.29494   1.00
C5       0.82474    -0.10380   0.26198   1.00
H1       0.81253    -0.02622   0.25908   1.00
H1       0.79056    0.02941    0.29703   1.00
H2       0.82077    -0.13599   0.26271   1.00
H2       0.84366    -0.09705   0.23652   1.00
N1       0.84355    -0.09125   0.29819   1.00
C6       0.82953    -0.09644   0.33453   1.00
C6       0.87814    -0.07288   0.30137   1.00
C6       0.85534    -0.08102   0.36128   1.00
C6       0.88626    -0.06604   0.34018   1.00
H3       0.80204    -0.11049   0.34130   1.00
H3       0.89654    -0.06484   0.27698   1.00
H3       0.85201    -0.08076   0.39265   1.00
H3       0.91188    -0.05180   0.35183   1.00
C4       0.74924    0.24987    0.02083   1.00
C4       0.75076    0.25013    -0.02083   1.00
C3       0.72235    0.22630    0.04154   1.00
C3       0.74631    0.21573    -0.04321   1.00
C3       0.77527    0.27254    0.04357   1.00
C3       0.75588    0.28531    -0.04187   1.00
C2       0.74762    0.24808    0.10513   1.00
C2       0.75219    0.25166    -0.10514   1.00
C3       0.72158    0.22552    0.08285   1.00
C3       0.74709    0.21655    -0.08449   1.00
C3       0.77441    0.27162    0.08486   1.00
C3a      0.75667    0.28626    -0.08328   1.00
H1       0.70148    0.20860    0.02575   1.00
H1       0.74268    0.18788    -0.02875   1.00
H1       0.70053    0.20717    0.09760   1.00
H1       0.74376    0.18955    -0.10056   1.00
H1       0.79494    0.28922    0.10118   1.00
C5       0.76198    0.32474    -0.10380   1.00
H1       0.75908    0.31253    -0.02622   1.00
H1       0.79703    0.29056    0.02941   1.00
H2       0.76271    0.32077    -0.13599   1.00
H2       0.73652    0.34366    -0.09705   1.00
N1       0.79819    0.34355    -0.09125   1.00
C6       0.83453    0.32953    -0.09644   1.00
C6       0.80137    0.37814    -0.07288   1.00
C6       0.86128    0.35534    -0.08102   1.00
C6       0.84018    0.38626    -0.06604   1.00
H3       0.84130    0.30204    -0.11049   1.00
H3       0.77698    0.39654    -0.06484   1.00
H3       0.89265    0.35201    -0.08076   1.00
H3       0.85183    0.41188    -0.05180   1.00
C4       0.99924    1.00013    1.22917   1.00
C4       1.00076    0.99987    1.27083   1.00
C3       0.97235    1.02370    1.20846   1.00
C3       0.99631    1.03427    1.29321   1.00
C3       1.02527    0.97746    1.20643   1.00
C3       1.00588    0.96469    1.29187   1.00
C2       0.99762    1.00192    1.14487   1.00
C2       1.00219    0.99834    1.35514   1.00
C3       0.97158    1.02448    1.16715   1.00
C3       0.99709    1.03345    1.33449   1.00
C3       1.02441    0.97838    1.16514   1.00
C3a      1.00667    0.96374    1.33328   1.00
H1       0.95148    1.04140    1.22425   1.00
H1       0.99268    1.06212    1.27875   1.00
H1       0.95053    1.04283    1.15240   1.00
H1       0.99376    1.06045    1.35056   1.00
H1       1.04494    0.96078    1.14882   1.00
C5       1.01198    0.92526    1.35380   1.00
H1       1.00908    0.93747    1.27622   1.00
H1       1.04703    0.95944    1.22059   1.00
H2       1.01271    0.92923    1.38599   1.00
H2       0.98652    0.90634    1.34705   1.00
N1       1.04819    0.90645    1.34125   1.00
C6       1.08453    0.92047    1.34644   1.00
C6       1.05137    0.87186    1.32288   1.00
C6       1.11128    0.89466    1.33102   1.00
C6       1.09018    0.86374    1.31604   1.00
H3       1.09130    0.94796    1.36049   1.00
H3       1.02698    0.85346    1.31484   1.00
H3       1.14265    0.89799    1.33076   1.00
H3       1.10183    0.83812    1.30180   1.00
C4       1.00013    1.22917    0.99924   1.00
C4       0.99987    1.27083    1.00076   1.00
C3       1.02370    1.20846    0.97235   1.00
C3       1.03427    1.29321    0.99631   1.00
C3       0.97746    1.20643    1.02527   1.00
C3       0.96469    1.29187    1.00588   1.00
C2       1.00192    1.14487    0.99762   1.00
C2       0.99834    1.35514    1.00219   1.00
C3       1.02448    1.16715    0.97158   1.00
C3       1.03345    1.33449    0.99709   1.00
C3       0.97838    1.16514    1.02441   1.00
C3a      0.96374    1.33328    1.00667   1.00
H1       1.04140    1.22425    0.95148   1.00
H1       1.06212    1.27875    0.99268   1.00
H1       1.04283    1.15240    0.95053   1.00
H1       1.06045    1.35056    0.99376   1.00
H1       0.96078    1.14882    1.04494   1.00
C5       0.92526    1.35380    1.01198   1.00
H1       0.93747    1.27622    1.00908   1.00
H1       0.95944    1.22059    1.04703   1.00
H2       0.92923    1.38599    1.01271   1.00
H2       0.90634    1.34705    0.98652   1.00
N1       0.90645    1.34125    1.04819   1.00
C6       0.92047    1.34644    1.08453   1.00
C6       0.87186    1.32288    1.05137   1.00
C6       0.89466    1.33102    1.11128   1.00
C6       0.86374    1.31604    1.09018   1.00
H3       0.94796    1.36049    1.09130   1.00
H3       0.85346    1.31484    1.02698   1.00
H3       0.89799    1.33076    1.14265   1.00
H3       0.83812    1.30180    1.10183   1.00
C4       0.77083    0.99924    0.99987   1.00
C4       0.72917    1.00076    1.00013   1.00
C3       0.79154    0.97235    0.97630   1.00
C3       0.70679    0.99631    0.96573   1.00
C3       0.79357    1.02527    1.02254   1.00
C3       0.70813    1.00588    1.03531   1.00
C2       0.85513    0.99762    0.99808   1.00
C2       0.64486    1.00219    1.00166   1.00
C3       0.83285    0.97158    0.97552   1.00
C3       0.66551    0.99709    0.96655   1.00
C3       0.83486    1.02441    1.02162   1.00
C3a      0.66672    1.00667    1.03626   1.00
H1       0.77575    0.95148    0.95860   1.00
H1       0.72125    0.99268    0.93788   1.00
H1       0.84760    0.95053    0.95717   1.00
H1       0.64944    0.99376    0.93955   1.00
H1       0.85118    1.04494    1.03922   1.00
C5       0.64620    1.01198    1.07474   1.00
H1       0.72378    1.00908    1.06253   1.00
H1       0.77941    1.04703    1.04056   1.00
H2       0.61401    1.01271    1.07077   1.00
H2       0.65295    0.98652    1.09366   1.00
N1       0.65875    1.04819    1.09355   1.00
C6       0.65356    1.08453    1.07953   1.00
C6       0.67712    1.05137    1.12814   1.00
C6       0.66898    1.11128    1.10534   1.00
C6       0.68396    1.09018    1.13626   1.00
H3       0.63951    1.09130    1.05204   1.00
H3       0.68516    1.02698    1.14654   1.00
H3       0.66924    1.14265    1.10201   1.00
H3       0.69820    1.10183    1.16188   1.00
C4       1.22917    0.99924    1.00013   1.00
C4       1.27083    1.00076    0.99987   1.00
C3       1.20846    0.97235    1.02370   1.00
C3       1.29321    0.99631    1.03427   1.00
C3       1.20643    1.02527    0.97746   1.00
C3       1.29187    1.00588    0.96469   1.00
C2       1.14487    0.99762    1.00192   1.00
C2       1.35514    1.00219    0.99834   1.00
C3       1.16715    0.97158    1.02448   1.00
C3       1.33449    0.99709    1.03345   1.00
C3       1.16514    1.02441    0.97838   1.00
C3a      1.33328    1.00667    0.96374   1.00
H1       1.22425    0.95148    1.04140   1.00
H1       1.27875    0.99268    1.06212   1.00
H1       1.15240    0.95053    1.04283   1.00
H1       1.35056    0.99376    1.06045   1.00
H1       1.14882    1.04494    0.96078   1.00
C5       1.35380    1.01198    0.92526   1.00
H1       1.27622    1.00908    0.93747   1.00
H1       1.22059    1.04703    0.95944   1.00
H2       1.38599    1.01271    0.92923   1.00
H2       1.34705    0.98652    0.90634   1.00
N1       1.34125    1.04819    0.90645   1.00
C6       1.34644    1.08453    0.92047   1.00
C6       1.32288    1.05137    0.87186   1.00
C6       1.33102    1.11128    0.89466   1.00
C6       1.31604    1.09018    0.86374   1.00
H3       1.36049    1.09130    0.94796   1.00
H3       1.31484    1.02698    0.85346   1.00
H3       1.33076    1.14265    0.89799   1.00
H3       1.30180    1.10183    0.83812   1.00
C4       0.99987    0.77083    0.99924   1.00
C4       1.00013    0.72917    1.00076   1.00
C3       0.97630    0.79154    0.97235   1.00
C3       0.96573    0.70679    0.99631   1.00
C3       1.02254    0.79357    1.02527   1.00
C3       1.03531    0.70813    1.00588   1.00
C2       0.99808    0.85513    0.99762   1.00
C2       1.00166    0.64486    1.00219   1.00
C3       0.97552    0.83285    0.97158   1.00
C3       0.96655    0.66551    0.99709   1.00
C3       1.02162    0.83486    1.02441   1.00
C3a      1.03626    0.66672    1.00667   1.00
H1       0.95860    0.77575    0.95148   1.00
H1       0.93788    0.72125    0.99268   1.00
H1       0.95717    0.84760    0.95053   1.00
H1       0.93955    0.64944    0.99376   1.00
H1       1.03922    0.85118    1.04494   1.00
C5       1.07474    0.64620    1.01198   1.00
H1       1.06253    0.72378    1.00908   1.00
H1       1.04056    0.77941    1.04703   1.00
H2       1.07077    0.61401    1.01271   1.00
H2       1.09366    0.65295    0.98652   1.00
N1       1.09355    0.65875    1.04819   1.00
C6       1.07953    0.65356    1.08453   1.00
C6       1.12814    0.67712    1.05137   1.00
C6       1.10534    0.66898    1.11128   1.00
C6       1.13626    0.68396    1.09018   1.00
H3       1.05204    0.63951    1.09130   1.00
H3       1.14654    0.68516    1.02698   1.00
H3       1.10201    0.66924    1.14265   1.00
H3       1.16188    0.69820    1.10183   1.00
C4       0.99924    0.99987    0.77083   1.00
C4       1.00076    1.00013    0.72917   1.00
C3       0.97235    0.97630    0.79154   1.00
C3       0.99631    0.96573    0.70679   1.00
C3       1.02527    1.02254    0.79357   1.00
C3       1.00588    1.03531    0.70813   1.00
C2       0.99762    0.99808    0.85513   1.00
C2       1.00219    1.00166    0.64486   1.00
C3       0.97158    0.97552    0.83285   1.00
C3       0.99709    0.96655    0.66551   1.00
C3       1.02441    1.02162    0.83486   1.00
C3a      1.00667    1.03626    0.66672   1.00
H1       0.95148    0.95860    0.77575   1.00
H1       0.99268    0.93788    0.72125   1.00
H1       0.95053    0.95717    0.84760   1.00
H1       0.99376    0.93955    0.64944   1.00
H1       1.04494    1.03922    0.85118   1.00
C5       1.01198    1.07474    0.64620   1.00
H1       1.00908    1.06253    0.72378   1.00
H1       1.04703    1.04056    0.77941   1.00
H2       1.01271    1.07077    0.61401   1.00
H2       0.98652    1.09366    0.65295   1.00
N1       1.04819    1.09355    0.65875   1.00
C6       1.08453    1.07953    0.65356   1.00
C6       1.05137    1.12814    0.67712   1.00
C6       1.11128    1.10534    0.66898   1.00
C6       1.09018    1.13626    0.68396   1.00
H3       1.09130    1.05204    0.63951   1.00
H3       1.02698    1.14654    0.68516   1.00
H3       1.14265    1.10201    0.66924   1.00
H3       1.10183    1.16188    0.69820   1.00
C4       0.49924    0.50013    1.22917   1.00
C4       0.50076    0.49987    1.27083   1.00
C3       0.47235    0.52370    1.20846   1.00
C3       0.49631    0.53427    1.29321   1.00
C3       0.52527    0.47746    1.20643   1.00
C3       0.50588    0.46469    1.29187   1.00
C2       0.49762    0.50192    1.14487   1.00
C2       0.50219    0.49834    1.35514   1.00
C3       0.47158    0.52448    1.16715   1.00
C3       0.49709    0.53345    1.33449   1.00
C3       0.52441    0.47838    1.16514   1.00
C3a      0.50667    0.46374    1.33328   1.00
H1       0.45148    0.54140    1.22425   1.00
H1       0.49268    0.56212    1.27875   1.00
H1       0.45053    0.54283    1.15240   1.00
H1       0.49376    0.56045    1.35056   1.00
H1       0.54494    0.46078    1.14882   1.00
C5       0.51198    0.42526    1.35380   1.00
H1       0.50908    0.43747    1.27622   1.00
H1       0.54703    0.45944    1.22059   1.00
H2       0.51271    0.42923    1.38599   1.00
H2       0.48652    0.40634    1.34705   1.00
N1       0.54819    0.40645    1.34125   1.00
C6       0.58453    0.42047    1.34644   1.00
C6       0.55137    0.37186    1.32288   1.00
C6       0.61128    0.39466    1.33102   1.00
C6       0.59018    0.36374    1.31604   1.00
H3       0.59130    0.44796    1.36049   1.00
H3       0.52698    0.35346    1.31484   1.00
H3       0.64265    0.39799    1.33076   1.00
H3       0.60183    0.33812    1.30180   1.00
C4       0.50013    0.72917    0.99924   1.00
C4       0.49987    0.77083    1.00076   1.00
C3       0.52370    0.70846    0.97235   1.00
C3       0.53427    0.79321    0.99631   1.00
C3       0.47746    0.70643    1.02527   1.00
C3       0.46469    0.79187    1.00588   1.00
C2       0.50192    0.64487    0.99762   1.00
C2       0.49834    0.85514    1.00219   1.00
C3       0.52448    0.66715    0.97158   1.00
C3       0.53345    0.83449    0.99709   1.00
C3       0.47838    0.66514    1.02441   1.00
C3a      0.46374    0.83328    1.00667   1.00
H1       0.54140    0.72425    0.95148   1.00
H1       0.56212    0.77875    0.99268   1.00
H1       0.54283    0.65240    0.95053   1.00
H1       0.56045    0.85056    0.99376   1.00
H1       0.46078    0.64882    1.04494   1.00
C5       0.42526    0.85380    1.01198   1.00
H1       0.43747    0.77622    1.00908   1.00
H1       0.45944    0.72059    1.04703   1.00
H2       0.42923    0.88599    1.01271   1.00
H2       0.40634    0.84705    0.98652   1.00
N1       0.40645    0.84125    1.04819   1.00
C6       0.42047    0.84644    1.08453   1.00
C6       0.37186    0.82288    1.05137   1.00
C6       0.39466    0.83102    1.11128   1.00
C6       0.36374    0.81604    1.09018   1.00
H3       0.44796    0.86049    1.09130   1.00
H3       0.35346    0.81484    1.02698   1.00
H3       0.39799    0.83076    1.14265   1.00
H3       0.33812    0.80180    1.10183   1.00
C4       0.27083    0.49924    0.99987   1.00
C4       0.22917    0.50076    1.00013   1.00
C3       0.29154    0.47235    0.97630   1.00
C3       0.20679    0.49631    0.96573   1.00
C3       0.29357    0.52527    1.02254   1.00
C3       0.20813    0.50588    1.03531   1.00
C2       0.35513    0.49762    0.99808   1.00
C2       0.14486    0.50219    1.00166   1.00
C3       0.33285    0.47158    0.97552   1.00
C3       0.16551    0.49709    0.96655   1.00
C3       0.33486    0.52441    1.02162   1.00
C3a      0.16672    0.50667    1.03626   1.00
H1       0.27575    0.45148    0.95860   1.00
H1       0.22125    0.49268    0.93788   1.00
H1       0.34760    0.45053    0.95717   1.00
H1       0.14944    0.49376    0.93955   1.00
H1       0.35118    0.54494    1.03922   1.00
C5       0.14620    0.51198    1.07474   1.00
H1       0.22378    0.50908    1.06253   1.00
H1       0.27941    0.54703    1.04056   1.00
H2       0.11401    0.51271    1.07077   1.00
H2       0.15295    0.48652    1.09366   1.00
N1       0.15875    0.54819    1.09355   1.00
C6       0.15356    0.58453    1.07953   1.00
C6       0.17712    0.55137    1.12814   1.00
C6       0.16898    0.61128    1.10534   1.00
C6       0.18396    0.59018    1.13626   1.00
H3       0.13951    0.59130    1.05204   1.00
H3       0.18516    0.52698    1.14654   1.00
H3       0.16924    0.64265    1.10201   1.00
H3       0.19820    0.60183    1.16188   1.00
C4       0.72917    0.49924    1.00013   1.00
C4       0.77083    0.50076    0.99987   1.00
C3       0.70846    0.47235    1.02370   1.00
C3       0.79321    0.49631    1.03427   1.00
C3       0.70643    0.52527    0.97746   1.00
C3       0.79187    0.50588    0.96469   1.00
C2       0.64487    0.49762    1.00192   1.00
C2       0.85514    0.50219    0.99834   1.00
C3       0.66715    0.47158    1.02448   1.00
C3       0.83449    0.49709    1.03345   1.00
C3       0.66514    0.52441    0.97838   1.00
C3a      0.83328    0.50667    0.96374   1.00
H1       0.72425    0.45148    1.04140   1.00
H1       0.77875    0.49268    1.06212   1.00
H1       0.65240    0.45053    1.04283   1.00
H1       0.85056    0.49376    1.06045   1.00
H1       0.64882    0.54494    0.96078   1.00
C5       0.85380    0.51198    0.92526   1.00
H1       0.77622    0.50908    0.93747   1.00
H1       0.72059    0.54703    0.95944   1.00
H2       0.88599    0.51271    0.92923   1.00
H2       0.84705    0.48652    0.90634   1.00
N1       0.84125    0.54819    0.90645   1.00
C6       0.84644    0.58453    0.92047   1.00
C6       0.82288    0.55137    0.87186   1.00
C6       0.83102    0.61128    0.89466   1.00
C6       0.81604    0.59018    0.86374   1.00
H3       0.86049    0.59130    0.94796   1.00
H3       0.81484    0.52698    0.85346   1.00
H3       0.83076    0.64265    0.89799   1.00
H3       0.80180    0.60183    0.83812   1.00
C4       0.49987    0.27083    0.99924   1.00
C4       0.50013    0.22917    1.00076   1.00
C3       0.47630    0.29154    0.97235   1.00
C3       0.46573    0.20679    0.99631   1.00
C3       0.52254    0.29357    1.02527   1.00
C3       0.53531    0.20813    1.00588   1.00
C2       0.49808    0.35513    0.99762   1.00
C2       0.50166    0.14486    1.00219   1.00
C3       0.47552    0.33285    0.97158   1.00
C3       0.46655    0.16551    0.99709   1.00
C3       0.52162    0.33486    1.02441   1.00
C3a      0.53626    0.16672    1.00667   1.00
H1       0.45860    0.27575    0.95148   1.00
H1       0.43788    0.22125    0.99268   1.00
H1       0.45717    0.34760    0.95053   1.00
H1       0.43955    0.14944    0.99376   1.00
H1       0.53922    0.35118    1.04494   1.00
C5       0.57474    0.14620    1.01198   1.00
H1       0.56253    0.22378    1.00908   1.00
H1       0.54056    0.27941    1.04703   1.00
H2       0.57077    0.11401    1.01271   1.00
H2       0.59366    0.15295    0.98652   1.00
N1       0.59355    0.15875    1.04819   1.00
C6       0.57953    0.15356    1.08453   1.00
C6       0.62814    0.17712    1.05137   1.00
C6       0.60534    0.16898    1.11128   1.00
C6       0.63626    0.18396    1.09018   1.00
H3       0.55204    0.13951    1.09130   1.00
H3       0.64654    0.18516    1.02698   1.00
H3       0.60201    0.16924    1.14265   1.00
H3       0.66188    0.19820    1.10183   1.00
C4       0.49924    0.49987    0.77083   1.00
C4       0.50076    0.50013    0.72917   1.00
C3       0.47235    0.47630    0.79154   1.00
C3       0.49631    0.46573    0.70679   1.00
C3       0.52527    0.52254    0.79357   1.00
C3       0.50588    0.53531    0.70813   1.00
C2       0.49762    0.49808    0.85513   1.00
C2       0.50219    0.50166    0.64486   1.00
C3       0.47158    0.47552    0.83285   1.00
C3       0.49709    0.46655    0.66551   1.00
C3       0.52441    0.52162    0.83486   1.00
C3a      0.50667    0.53626    0.66672   1.00
H1       0.45148    0.45860    0.77575   1.00
H1       0.49268    0.43788    0.72125   1.00
H1       0.45053    0.45717    0.84760   1.00
H1       0.49376    0.43955    0.64944   1.00
H1       0.54494    0.53922    0.85118   1.00
C5       0.51198    0.57474    0.64620   1.00
H1       0.50908    0.56253    0.72378   1.00
H1       0.54703    0.54056    0.77941   1.00
H2       0.51271    0.57077    0.61401   1.00
H2       0.48652    0.59366    0.65295   1.00
N1       0.54819    0.59355    0.65875   1.00
C6       0.58453    0.57953    0.65356   1.00
C6       0.55137    0.62814    0.67712   1.00
C6       0.61128    0.60534    0.66898   1.00
C6       0.59018    0.63626    0.68396   1.00
H3       0.59130    0.55204    0.63951   1.00
H3       0.52698    0.64654    0.68516   1.00
H3       0.64265    0.60201    0.66924   1.00
H3       0.60183    0.66188    0.69820   1.00
C4       0.49924    1.00013    0.72917   1.00
C4       0.50076    0.99987    0.77083   1.00
C3       0.47235    1.02370    0.70846   1.00
C3       0.49631    1.03427    0.79321   1.00
C3       0.52527    0.97746    0.70643   1.00
C3       0.50588    0.96469    0.79187   1.00
C2       0.49762    1.00192    0.64487   1.00
C2       0.50219    0.99834    0.85514   1.00
C3       0.47158    1.02448    0.66715   1.00
C3       0.49709    1.03345    0.83449   1.00
C3       0.52441    0.97838    0.66514   1.00
C3a      0.50667    0.96374    0.83328   1.00
H1       0.45148    1.04140    0.72425   1.00
H1       0.49268    1.06212    0.77875   1.00
H1       0.45053    1.04283    0.65240   1.00
H1       0.49376    1.06045    0.85056   1.00
H1       0.54494    0.96078    0.64882   1.00
C5       0.51198    0.92526    0.85380   1.00
H1       0.50908    0.93747    0.77622   1.00
H1       0.54703    0.95944    0.72059   1.00
H2       0.51271    0.92923    0.88599   1.00
H2       0.48652    0.90634    0.84705   1.00
N1       0.54819    0.90645    0.84125   1.00
C6       0.58453    0.92047    0.84644   1.00
C6       0.55137    0.87186    0.82288   1.00
C6       0.61128    0.89466    0.83102   1.00
C6       0.59018    0.86374    0.81604   1.00
H3       0.59130    0.94796    0.86049   1.00
H3       0.52698    0.85346    0.81484   1.00
H3       0.64265    0.89799    0.83076   1.00
H3       0.60183    0.83812    0.80180   1.00
C4       0.50013    1.22917    0.49924   1.00
C4       0.49987    1.27083    0.50076   1.00
C3       0.52370    1.20846    0.47235   1.00
C3       0.53427    1.29321    0.49631   1.00
C3       0.47746    1.20643    0.52527   1.00
C3       0.46469    1.29187    0.50588   1.00
C2       0.50192    1.14487    0.49762   1.00
C2       0.49834    1.35514    0.50219   1.00
C3       0.52448    1.16715    0.47158   1.00
C3       0.53345    1.33449    0.49709   1.00
C3       0.47838    1.16514    0.52441   1.00
C3a      0.46374    1.33328    0.50667   1.00
H1       0.54140    1.22425    0.45148   1.00
H1       0.56212    1.27875    0.49268   1.00
H1       0.54283    1.15240    0.45053   1.00
H1       0.56045    1.35056    0.49376   1.00
H1       0.46078    1.14882    0.54494   1.00
C5       0.42526    1.35380    0.51198   1.00
H1       0.43747    1.27622    0.50908   1.00
H1       0.45944    1.22059    0.54703   1.00
H2       0.42923    1.38599    0.51271   1.00
H2       0.40634    1.34705    0.48652   1.00
N1       0.40645    1.34125    0.54819   1.00
C6       0.42047    1.34644    0.58453   1.00
C6       0.37186    1.32288    0.55137   1.00
C6       0.39466    1.33102    0.61128   1.00
C6       0.36374    1.31604    0.59018   1.00
H3       0.44796    1.36049    0.59130   1.00
H3       0.35346    1.31484    0.52698   1.00
H3       0.39799    1.33076    0.64265   1.00
H3       0.33812    1.30180    0.60183   1.00
C4       0.27083    0.99924    0.49987   1.00
C4       0.22917    1.00076    0.50013   1.00
C3       0.29154    0.97235    0.47630   1.00
C3       0.20679    0.99631    0.46573   1.00
C3       0.29357    1.02527    0.52254   1.00
C3       0.20813    1.00588    0.53531   1.00
C2       0.35513    0.99762    0.49808   1.00
C2       0.14486    1.00219    0.50166   1.00
C3       0.33285    0.97158    0.47552   1.00
C3       0.16551    0.99709    0.46655   1.00
C3       0.33486    1.02441    0.52162   1.00
C3a      0.16672    1.00667    0.53626   1.00
H1       0.27575    0.95148    0.45860   1.00
H1       0.22125    0.99268    0.43788   1.00
H1       0.34760    0.95053    0.45717   1.00
H1       0.14944    0.99376    0.43955   1.00
H1       0.35118    1.04494    0.53922   1.00
C5       0.14620    1.01198    0.57474   1.00
H1       0.22378    1.00908    0.56253   1.00
H1       0.27941    1.04703    0.54056   1.00
H2       0.11401    1.01271    0.57077   1.00
H2       0.15295    0.98652    0.59366   1.00
N1       0.15875    1.04819    0.59355   1.00
C6       0.15356    1.08453    0.57953   1.00
C6       0.17712    1.05137    0.62814   1.00
C6       0.16898    1.11128    0.60534   1.00
C6       0.18396    1.09018    0.63626   1.00
H3       0.13951    1.09130    0.55204   1.00
H3       0.18516    1.02698    0.64654   1.00
H3       0.16924    1.14265    0.60201   1.00
H3       0.19820    1.10183    0.66188   1.00
C4       0.72917    0.99924    0.50013   1.00
C4       0.77083    1.00076    0.49987   1.00
C3       0.70846    0.97235    0.52370   1.00
C3       0.79321    0.99631    0.53427   1.00
C3       0.70643    1.02527    0.47746   1.00
C3       0.79187    1.00588    0.46469   1.00
C2       0.64487    0.99762    0.50192   1.00
C2       0.85514    1.00219    0.49834   1.00
C3       0.66715    0.97158    0.52448   1.00
C3       0.83449    0.99709    0.53345   1.00
C3       0.66514    1.02441    0.47838   1.00
C3a      0.83328    1.00667    0.46374   1.00
H1       0.72425    0.95148    0.54140   1.00
H1       0.77875    0.99268    0.56212   1.00
H1       0.65240    0.95053    0.54283   1.00
H1       0.85056    0.99376    0.56045   1.00
H1       0.64882    1.04494    0.46078   1.00
C5       0.85380    1.01198    0.42526   1.00
H1       0.77622    1.00908    0.43747   1.00
H1       0.72059    1.04703    0.45944   1.00
H2       0.88599    1.01271    0.42923   1.00
H2       0.84705    0.98652    0.40634   1.00
N1       0.84125    1.04819    0.40645   1.00
C6       0.84644    1.08453    0.42047   1.00
C6       0.82288    1.05137    0.37186   1.00
C6       0.83102    1.11128    0.39466   1.00
C6       0.81604    1.09018    0.36374   1.00
H3       0.86049    1.09130    0.44796   1.00
H3       0.81484    1.02698    0.35346   1.00
H3       0.83076    1.14265    0.39799   1.00
H3       0.80180    1.10183    0.33812   1.00
C4       0.49987    0.77083    0.49924   1.00
C4       0.50013    0.72917    0.50076   1.00
C3       0.47630    0.79154    0.47235   1.00
C3       0.46573    0.70679    0.49631   1.00
C3       0.52254    0.79357    0.52527   1.00
C3       0.53531    0.70813    0.50588   1.00
C2       0.49808    0.85513    0.49762   1.00
C2       0.50166    0.64486    0.50219   1.00
C3       0.47552    0.83285    0.47158   1.00
C3       0.46655    0.66551    0.49709   1.00
C3       0.52162    0.83486    0.52441   1.00
C3a      0.53626    0.66672    0.50667   1.00
H1       0.45860    0.77575    0.45148   1.00
H1       0.43788    0.72125    0.49268   1.00
H1       0.45717    0.84760    0.45053   1.00
H1       0.43955    0.64944    0.49376   1.00
H1       0.53922    0.85118    0.54494   1.00
C5       0.57474    0.64620    0.51198   1.00
H1       0.56253    0.72378    0.50908   1.00
H1       0.54056    0.77941    0.54703   1.00
H2       0.57077    0.61401    0.51271   1.00
H2       0.59366    0.65295    0.48652   1.00
N1       0.59355    0.65875    0.54819   1.00
C6       0.57953    0.65356    0.58453   1.00
C6       0.62814    0.67712    0.55137   1.00
C6       0.60534    0.66898    0.61128   1.00
C6       0.63626    0.68396    0.59018   1.00
H3       0.55204    0.63951    0.59130   1.00
H3       0.64654    0.68516    0.52698   1.00
H3       0.60201    0.66924    0.64265   1.00
H3       0.66188    0.69820    0.60183   1.00
C4       0.49924    0.99987    0.27083   1.00
C4       0.50076    1.00013    0.22917   1.00
C3       0.47235    0.97630    0.29154   1.00
C3       0.49631    0.96573    0.20679   1.00
C3       0.52527    1.02254    0.29357   1.00
C3       0.50588    1.03531    0.20813   1.00
C2       0.49762    0.99808    0.35513   1.00
C2       0.50219    1.00166    0.14486   1.00
C3       0.47158    0.97552    0.33285   1.00
C3       0.49709    0.96655    0.16551   1.00
C3       0.52441    1.02162    0.33486   1.00
C3a      0.50667    1.03626    0.16672   1.00
H1       0.45148    0.95860    0.27575   1.00
H1       0.49268    0.93788    0.22125   1.00
H1       0.45053    0.95717    0.34760   1.00
H1       0.49376    0.93955    0.14944   1.00
H1       0.54494    1.03922    0.35118   1.00
C5       0.51198    1.07474    0.14620   1.00
H1       0.50908    1.06253    0.22378   1.00
H1       0.54703    1.04056    0.27941   1.00
H2       0.51271    1.07077    0.11401   1.00
H2       0.48652    1.09366    0.15295   1.00
N1       0.54819    1.09355    0.15875   1.00
C6       0.58453    1.07953    0.15356   1.00
C6       0.55137    1.12814    0.17712   1.00
C6       0.61128    1.10534    0.16898   1.00
C6       0.59018    1.13626    0.18396   1.00
H3       0.59130    1.05204    0.13951   1.00
H3       0.52698    1.14654    0.18516   1.00
H3       0.64265    1.10201    0.16924   1.00
H3       0.60183    1.16188    0.19820   1.00
C4       0.99924    0.50013    0.72917   1.00
C4       1.00076    0.49987    0.77083   1.00
C3       0.97235    0.52370    0.70846   1.00
C3       0.99631    0.53427    0.79321   1.00
C3       1.02527    0.47746    0.70643   1.00
C3       1.00588    0.46469    0.79187   1.00
C2       0.99762    0.50192    0.64487   1.00
C2       1.00219    0.49834    0.85514   1.00
C3       0.97158    0.52448    0.66715   1.00
C3       0.99709    0.53345    0.83449   1.00
C3       1.02441    0.47838    0.66514   1.00
C3a      1.00667    0.46374    0.83328   1.00
H1       0.95148    0.54140    0.72425   1.00
H1       0.99268    0.56212    0.77875   1.00
H1       0.95053    0.54283    0.65240   1.00
H1       0.99376    0.56045    0.85056   1.00
H1       1.04494    0.46078    0.64882   1.00
C5       1.01198    0.42526    0.85380   1.00
H1       1.00908    0.43747    0.77622   1.00
H1       1.04703    0.45944    0.72059   1.00
H2       1.01271    0.42923    0.88599   1.00
H2       0.98652    0.40634    0.84705   1.00
N1       1.04819    0.40645    0.84125   1.00
C6       1.08453    0.42047    0.84644   1.00
C6       1.05137    0.37186    0.82288   1.00
C6       1.11128    0.39466    0.83102   1.00
C6       1.09018    0.36374    0.81604   1.00
H3       1.09130    0.44796    0.86049   1.00
H3       1.02698    0.35346    0.81484   1.00
H3       1.14265    0.39799    0.83076   1.00
H3       1.10183    0.33812    0.80180   1.00
C4       1.00013    0.72917    0.49924   1.00
C4       0.99987    0.77083    0.50076   1.00
C3       1.02370    0.70846    0.47235   1.00
C3       1.03427    0.79321    0.49631   1.00
C3       0.97746    0.70643    0.52527   1.00
C3       0.96469    0.79187    0.50588   1.00
C2       1.00192    0.64487    0.49762   1.00
C2       0.99834    0.85514    0.50219   1.00
C3       1.02448    0.66715    0.47158   1.00
C3       1.03345    0.83449    0.49709   1.00
C3       0.97838    0.66514    0.52441   1.00
C3a      0.96374    0.83328    0.50667   1.00
H1       1.04140    0.72425    0.45148   1.00
H1       1.06212    0.77875    0.49268   1.00
H1       1.04283    0.65240    0.45053   1.00
H1       1.06045    0.85056    0.49376   1.00
H1       0.96078    0.64882    0.54494   1.00
C5       0.92526    0.85380    0.51198   1.00
H1       0.93747    0.77622    0.50908   1.00
H1       0.95944    0.72059    0.54703   1.00
H2       0.92923    0.88599    0.51271   1.00
H2       0.90634    0.84705    0.48652   1.00
N1       0.90645    0.84125    0.54819   1.00
C6       0.92047    0.84644    0.58453   1.00
C6       0.87186    0.82288    0.55137   1.00
C6       0.89466    0.83102    0.61128   1.00
C6       0.86374    0.81604    0.59018   1.00
H3       0.94796    0.86049    0.59130   1.00
H3       0.85346    0.81484    0.52698   1.00
H3       0.89799    0.83076    0.64265   1.00
H3       0.83812    0.80180    0.60183   1.00
C4       0.77083    0.49924    0.49987   1.00
C4       0.72917    0.50076    0.50013   1.00
C3       0.79154    0.47235    0.47630   1.00
C3       0.70679    0.49631    0.46573   1.00
C3       0.79357    0.52527    0.52254   1.00
C3       0.70813    0.50588    0.53531   1.00
C2       0.85513    0.49762    0.49808   1.00
C2       0.64486    0.50219    0.50166   1.00
C3       0.83285    0.47158    0.47552   1.00
C3       0.66551    0.49709    0.46655   1.00
C3       0.83486    0.52441    0.52162   1.00
C3a      0.66672    0.50667    0.53626   1.00
H1       0.77575    0.45148    0.45860   1.00
H1       0.72125    0.49268    0.43788   1.00
H1       0.84760    0.45053    0.45717   1.00
H1       0.64944    0.49376    0.43955   1.00
H1       0.85118    0.54494    0.53922   1.00
C5       0.64620    0.51198    0.57474   1.00
H1       0.72378    0.50908    0.56253   1.00
H1       0.77941    0.54703    0.54056   1.00
H2       0.61401    0.51271    0.57077   1.00
H2       0.65295    0.48652    0.59366   1.00
N1       0.65875    0.54819    0.59355   1.00
C6       0.65356    0.58453    0.57953   1.00
C6       0.67712    0.55137    0.62814   1.00
C6       0.66898    0.61128    0.60534   1.00
C6       0.68396    0.59018    0.63626   1.00
H3       0.63951    0.59130    0.55204   1.00
H3       0.68516    0.52698    0.64654   1.00
H3       0.66924    0.64265    0.60201   1.00
H3       0.69820    0.60183    0.66188   1.00
C4       1.22917    0.49924    0.50013   1.00
C4       1.27083    0.50076    0.49987   1.00
C3       1.20846    0.47235    0.52370   1.00
C3       1.29321    0.49631    0.53427   1.00
C3       1.20643    0.52527    0.47746   1.00
C3       1.29187    0.50588    0.46469   1.00
C2       1.14487    0.49762    0.50192   1.00
C2       1.35514    0.50219    0.49834   1.00
C3       1.16715    0.47158    0.52448   1.00
C3       1.33449    0.49709    0.53345   1.00
C3       1.16514    0.52441    0.47838   1.00
C3a      1.33328    0.50667    0.46374   1.00
H1       1.22425    0.45148    0.54140   1.00
H1       1.27875    0.49268    0.56212   1.00
H1       1.15240    0.45053    0.54283   1.00
H1       1.35056    0.49376    0.56045   1.00
H1       1.14882    0.54494    0.46078   1.00
C5       1.35380    0.51198    0.42526   1.00
H1       1.27622    0.50908    0.43747   1.00
H1       1.22059    0.54703    0.45944   1.00
H2       1.38599    0.51271    0.42923   1.00
H2       1.34705    0.48652    0.40634   1.00
N1       1.34125    0.54819    0.40645   1.00
C6       1.34644    0.58453    0.42047   1.00
C6       1.32288    0.55137    0.37186   1.00
C6       1.33102    0.61128    0.39466   1.00
C6       1.31604    0.59018    0.36374   1.00
H3       1.36049    0.59130    0.44796   1.00
H3       1.31484    0.52698    0.35346   1.00
H3       1.33076    0.64265    0.39799   1.00
H3       1.30180    0.60183    0.33812   1.00
C4       0.99987    0.27083    0.49924   1.00
C4       1.00013    0.22917    0.50076   1.00
C3       0.97630    0.29154    0.47235   1.00
C3       0.96573    0.20679    0.49631   1.00
C3       1.02254    0.29357    0.52527   1.00
C3       1.03531    0.20813    0.50588   1.00
C2       0.99808    0.35513    0.49762   1.00
C2       1.00166    0.14486    0.50219   1.00
C3       0.97552    0.33285    0.47158   1.00
C3       0.96655    0.16551    0.49709   1.00
C3       1.02162    0.33486    0.52441   1.00
C3a      1.03626    0.16672    0.50667   1.00
H1       0.95860    0.27575    0.45148   1.00
H1       0.93788    0.22125    0.49268   1.00
H1       0.95717    0.34760    0.45053   1.00
H1       0.93955    0.14944    0.49376   1.00
H1       1.03922    0.35118    0.54494   1.00
C5       1.07474    0.14620    0.51198   1.00
H1       1.06253    0.22378    0.50908   1.00
H1       1.04056    0.27941    0.54703   1.00
H2       1.07077    0.11401    0.51271   1.00
H2       1.09366    0.15295    0.48652   1.00
N1       1.09355    0.15875    0.54819   1.00
C6       1.07953    0.15356    0.58453   1.00
C6       1.12814    0.17712    0.55137   1.00
C6       1.10534    0.16898    0.61128   1.00
C6       1.13626    0.18396    0.59018   1.00
H3       1.05204    0.13951    0.59130   1.00
H3       1.14654    0.18516    0.52698   1.00
H3       1.10201    0.16924    0.64265   1.00
H3       1.16188    0.19820    0.60183   1.00
C4       0.99924    0.49987    0.27083   1.00
C4       1.00076    0.50013    0.22917   1.00
C3       0.97235    0.47630    0.29154   1.00
C3       0.99631    0.46573    0.20679   1.00
C3       1.02527    0.52254    0.29357   1.00
C3       1.00588    0.53531    0.20813   1.00
C2       0.99762    0.49808    0.35513   1.00
C2       1.00219    0.50166    0.14486   1.00
C3       0.97158    0.47552    0.33285   1.00
C3       0.99709    0.46655    0.16551   1.00
C3       1.02441    0.52162    0.33486   1.00
C3a      1.00667    0.53626    0.16672   1.00
H1       0.95148    0.45860    0.27575   1.00
H1       0.99268    0.43788    0.22125   1.00
H1       0.95053    0.45717    0.34760   1.00
H1       0.99376    0.43955    0.14944   1.00
H1       1.04494    0.53922    0.35118   1.00
C5       1.01198    0.57474    0.14620   1.00
H1       1.00908    0.56253    0.22378   1.00
H1       1.04703    0.54056    0.27941   1.00
H2       1.01271    0.57077    0.11401   1.00
H2       0.98652    0.59366    0.15295   1.00
N1       1.04819    0.59355    0.15875   1.00
C6       1.08453    0.57953    0.15356   1.00
C6       1.05137    0.62814    0.17712   1.00
C6       1.11128    0.60534    0.16898   1.00
C6       1.09018    0.63626    0.18396   1.00
H3       1.09130    0.55204    0.13951   1.00
H3       1.02698    0.64654    0.18516   1.00
H3       1.14265    0.60201    0.16924   1.00
H3       1.10183    0.66188    0.19820   1.00
