data_IRMOF10_SG202_interpen_Ligand3lp_label_l.

_audit_creation_method             'generated by an auxiliary program of Tobunporous'

_symmetry_space_group_name_H-M     'P 1'
_symmetry_Int_Tables_number        1
_symmetry_cell_setting             triclinic

_cell_length_a                    34.2800
_cell_length_b                    34.2800
_cell_length_c                    34.2800
_cell_angle_alpha                 90.0000
_cell_angle_beta                  90.0000
_cell_angle_gamma                 90.0000

loop_
_atom_site_label
_atom_site_fract_x
_atom_site_fract_y
_atom_site_fract_z
_atom_site_occupancy
O1       0.75000    0.75000    0.75000   1.00
Zn1      0.71720    0.78280    0.78280   1.00
Zn1      0.78280    0.71720    0.78280   1.00
Zn1      0.78280    0.78280    0.71720   1.00
Zn1      0.71720    0.71720    0.71720   1.00
O2       0.72650    0.77350    0.83820   1.00
O2       0.72650    0.83820    0.77350   1.00
O2       0.66180    0.77350    0.77350   1.00
O2       0.77350    0.72650    0.83820   1.00
O2       0.83820    0.72650    0.77350   1.00
O2       0.77350    0.66180    0.77350   1.00
O2       0.77350    0.83820    0.72650   1.00
O2       0.83820    0.77350    0.72650   1.00
O2       0.77350    0.77350    0.66180   1.00
O2       0.66180    0.72650    0.72650   1.00
O2       0.72650    0.66180    0.72650   1.00
O2       0.72650    0.72650    0.66180   1.00
C1       0.75000    0.75000    0.85520   1.00
C1       0.75000    0.85520    0.75000   1.00
C1       0.64480    0.75000    0.75000   1.00
C1       0.85520    0.75000    0.75000   1.00
C1       0.75000    0.64480    0.75000   1.00
C1       0.75000    0.75000    0.64480   1.00
O1       0.25000    0.25000    0.75000   1.00
Zn1      0.21720    0.28280    0.78280   1.00
Zn1      0.28280    0.21720    0.78280   1.00
Zn1      0.28280    0.28280    0.71720   1.00
Zn1      0.21720    0.21720    0.71720   1.00
O2       0.22650    0.27350    0.83820   1.00
O2       0.22650    0.33820    0.77350   1.00
O2       0.16180    0.27350    0.77350   1.00
O2       0.27350    0.22650    0.83820   1.00
O2       0.33820    0.22650    0.77350   1.00
O2       0.27350    0.16180    0.77350   1.00
O2       0.27350    0.33820    0.72650   1.00
O2       0.33820    0.27350    0.72650   1.00
O2       0.27350    0.27350    0.66180   1.00
O2       0.16180    0.22650    0.72650   1.00
O2       0.22650    0.16180    0.72650   1.00
O2       0.22650    0.22650    0.66180   1.00
C1       0.25000    0.25000    0.85520   1.00
C1       0.25000    0.35520    0.75000   1.00
C1       0.14480    0.25000    0.75000   1.00
C1       0.35520    0.25000    0.75000   1.00
C1       0.25000    0.14480    0.75000   1.00
C1       0.25000    0.25000    0.64480   1.00
O1       0.25000    0.75000    0.25000   1.00
Zn1      0.21720    0.78280    0.28280   1.00
Zn1      0.28280    0.71720    0.28280   1.00
Zn1      0.28280    0.78280    0.21720   1.00
Zn1      0.21720    0.71720    0.21720   1.00
O2       0.22650    0.77350    0.33820   1.00
O2       0.22650    0.83820    0.27350   1.00
O2       0.16180    0.77350    0.27350   1.00
O2       0.27350    0.72650    0.33820   1.00
O2       0.33820    0.72650    0.27350   1.00
O2       0.27350    0.66180    0.27350   1.00
O2       0.27350    0.83820    0.22650   1.00
O2       0.33820    0.77350    0.22650   1.00
O2       0.27350    0.77350    0.16180   1.00
O2       0.16180    0.72650    0.22650   1.00
O2       0.22650    0.66180    0.22650   1.00
O2       0.22650    0.72650    0.16180   1.00
C1       0.25000    0.75000    0.35520   1.00
C1       0.25000    0.85520    0.25000   1.00
C1       0.14480    0.75000    0.25000   1.00
C1       0.35520    0.75000    0.25000   1.00
C1       0.25000    0.64480    0.25000   1.00
C1       0.25000    0.75000    0.14480   1.00
O1       0.75000    0.25000    0.25000   1.00
Zn1      0.71720    0.28280    0.28280   1.00
Zn1      0.78280    0.21720    0.28280   1.00
Zn1      0.78280    0.28280    0.21720   1.00
Zn1      0.71720    0.21720    0.21720   1.00
O2       0.72650    0.27350    0.33820   1.00
O2       0.72650    0.33820    0.27350   1.00
O2       0.66180    0.27350    0.27350   1.00
O2       0.77350    0.22650    0.33820   1.00
O2       0.83820    0.22650    0.27350   1.00
O2       0.77350    0.16180    0.27350   1.00
O2       0.77350    0.33820    0.22650   1.00
O2       0.83820    0.27350    0.22650   1.00
O2       0.77350    0.27350    0.16180   1.00
O2       0.66180    0.22650    0.22650   1.00
O2       0.72650    0.16180    0.22650   1.00
O2       0.72650    0.22650    0.16180   1.00
C1       0.75000    0.25000    0.35520   1.00
C1       0.75000    0.35520    0.25000   1.00
C1       0.64480    0.25000    0.25000   1.00
C1       0.85520    0.25000    0.25000   1.00
C1       0.75000    0.14480    0.25000   1.00
C1       0.75000    0.25000    0.14480   1.00
O1       0.25000    0.25000    0.25000   1.00
Zn1      0.28280    0.21720    0.21720   1.00
Zn1      0.21720    0.28280    0.21720   1.00
Zn1      0.21720    0.21720    0.28280   1.00
Zn1      0.28280    0.28280    0.28280   1.00
O2       0.27350    0.22650    0.16180   1.00
O2       0.27350    0.16180    0.22650   1.00
O2       0.33820    0.22650    0.22650   1.00
O2       0.22650    0.27350    0.16180   1.00
O2       0.16180    0.27350    0.22650   1.00
O2       0.22650    0.33820    0.22650   1.00
O2       0.22650    0.16180    0.27350   1.00
O2       0.16180    0.22650    0.27350   1.00
O2       0.22650    0.22650    0.33820   1.00
O2       0.33820    0.27350    0.27350   1.00
O2       0.27350    0.33820    0.27350   1.00
O2       0.27350    0.27350    0.33820   1.00
C1       0.25000    0.25000    0.14480   1.00
C1       0.25000    0.14480    0.25000   1.00
C1       0.35520    0.25000    0.25000   1.00
C1       0.14480    0.25000    0.25000   1.00
C1       0.25000    0.35520    0.25000   1.00
C1       0.25000    0.25000    0.35520   1.00
O1       0.75000    0.75000    0.25000   1.00
Zn1      0.78280    0.71720    0.21720   1.00
Zn1      0.71720    0.78280    0.21720   1.00
Zn1      0.71720    0.71720    0.28280   1.00
Zn1      0.78280    0.78280    0.28280   1.00
O2       0.77350    0.72650    0.16180   1.00
O2       0.77350    0.66180    0.22650   1.00
O2       0.83820    0.72650    0.22650   1.00
O2       0.72650    0.77350    0.16180   1.00
O2       0.66180    0.77350    0.22650   1.00
O2       0.72650    0.83820    0.22650   1.00
O2       0.72650    0.66180    0.27350   1.00
O2       0.66180    0.72650    0.27350   1.00
O2       0.72650    0.72650    0.33820   1.00
O2       0.83820    0.77350    0.27350   1.00
O2       0.77350    0.83820    0.27350   1.00
O2       0.77350    0.77350    0.33820   1.00
C1       0.75000    0.75000    0.14480   1.00
C1       0.75000    0.64480    0.25000   1.00
C1       0.85520    0.75000    0.25000   1.00
C1       0.64480    0.75000    0.25000   1.00
C1       0.75000    0.85520    0.25000   1.00
C1       0.75000    0.75000    0.35520   1.00
O1       0.75000    0.25000    0.75000   1.00
Zn1      0.78280    0.21720    0.71720   1.00
Zn1      0.71720    0.28280    0.71720   1.00
Zn1      0.71720    0.21720    0.78280   1.00
Zn1      0.78280    0.28280    0.78280   1.00
O2       0.77350    0.22650    0.66180   1.00
O2       0.77350    0.16180    0.72650   1.00
O2       0.83820    0.22650    0.72650   1.00
O2       0.72650    0.27350    0.66180   1.00
O2       0.66180    0.27350    0.72650   1.00
O2       0.72650    0.33820    0.72650   1.00
O2       0.72650    0.16180    0.77350   1.00
O2       0.66180    0.22650    0.77350   1.00
O2       0.72650    0.22650    0.83820   1.00
O2       0.83820    0.27350    0.77350   1.00
O2       0.77350    0.33820    0.77350   1.00
O2       0.77350    0.27350    0.83820   1.00
C1       0.75000    0.25000    0.64480   1.00
C1       0.75000    0.14480    0.75000   1.00
C1       0.85520    0.25000    0.75000   1.00
C1       0.64480    0.25000    0.75000   1.00
C1       0.75000    0.35520    0.75000   1.00
C1       0.75000    0.25000    0.85520   1.00
O1       0.25000    0.75000    0.75000   1.00
Zn1      0.28280    0.71720    0.71720   1.00
Zn1      0.21720    0.78280    0.71720   1.00
Zn1      0.21720    0.71720    0.78280   1.00
Zn1      0.28280    0.78280    0.78280   1.00
O2       0.27350    0.72650    0.66180   1.00
O2       0.27350    0.66180    0.72650   1.00
O2       0.33820    0.72650    0.72650   1.00
O2       0.22650    0.77350    0.66180   1.00
O2       0.16180    0.77350    0.72650   1.00
O2       0.22650    0.83820    0.72650   1.00
O2       0.22650    0.66180    0.77350   1.00
O2       0.16180    0.72650    0.77350   1.00
O2       0.22650    0.72650    0.83820   1.00
O2       0.33820    0.77350    0.77350   1.00
O2       0.27350    0.83820    0.77350   1.00
O2       0.27350    0.77350    0.83820   1.00
C1       0.25000    0.75000    0.64480   1.00
C1       0.25000    0.64480    0.75000   1.00
C1       0.35520    0.75000    0.75000   1.00
C1       0.14480    0.75000    0.75000   1.00
C1       0.25000    0.85520    0.75000   1.00
C1       0.25000    0.75000    0.85520   1.00
O1       1.00000    1.00000    1.00000   1.00
Zn1      0.96720    1.03280    1.03280   1.00
Zn1      1.03280    0.96720    1.03280   1.00
Zn1      1.03280    1.03280    0.96720   1.00
Zn1      0.96720    0.96720    0.96720   1.00
O2       0.97650    1.02350    1.08820   1.00
O2       0.97650    1.08820    1.02350   1.00
O2       0.91180    1.02350    1.02350   1.00
O2       1.02350    0.97650    1.08820   1.00
O2       1.08820    0.97650    1.02350   1.00
O2       1.02350    0.91180    1.02350   1.00
O2       1.02350    1.08820    0.97650   1.00
O2       1.08820    1.02350    0.97650   1.00
O2       1.02350    1.02350    0.91180   1.00
O2       0.91180    0.97650    0.97650   1.00
O2       0.97650    0.91180    0.97650   1.00
O2       0.97650    0.97650    0.91180   1.00
C1       1.00000    1.00000    1.10520   1.00
C1       1.00000    1.10520    1.00000   1.00
C1       0.89480    1.00000    1.00000   1.00
C1       1.10520    1.00000    1.00000   1.00
C1       1.00000    0.89480    1.00000   1.00
C1       1.00000    1.00000    0.89480   1.00
O1       0.50000    0.50000    1.00000   1.00
Zn1      0.46720    0.53280    1.03280   1.00
Zn1      0.53280    0.46720    1.03280   1.00
Zn1      0.53280    0.53280    0.96720   1.00
Zn1      0.46720    0.46720    0.96720   1.00
O2       0.47650    0.52350    1.08820   1.00
O2       0.47650    0.58820    1.02350   1.00
O2       0.41180    0.52350    1.02350   1.00
O2       0.52350    0.47650    1.08820   1.00
O2       0.58820    0.47650    1.02350   1.00
O2       0.52350    0.41180    1.02350   1.00
O2       0.52350    0.58820    0.97650   1.00
O2       0.58820    0.52350    0.97650   1.00
O2       0.52350    0.52350    0.91180   1.00
O2       0.41180    0.47650    0.97650   1.00
O2       0.47650    0.41180    0.97650   1.00
O2       0.47650    0.47650    0.91180   1.00
C1       0.50000    0.50000    1.10520   1.00
C1       0.50000    0.60520    1.00000   1.00
C1       0.39480    0.50000    1.00000   1.00
C1       0.60520    0.50000    1.00000   1.00
C1       0.50000    0.39480    1.00000   1.00
C1       0.50000    0.50000    0.89480   1.00
O1       0.50000    1.00000    0.50000   1.00
Zn1      0.46720    1.03280    0.53280   1.00
Zn1      0.53280    0.96720    0.53280   1.00
Zn1      0.53280    1.03280    0.46720   1.00
Zn1      0.46720    0.96720    0.46720   1.00
O2       0.47650    1.02350    0.58820   1.00
O2       0.47650    1.08820    0.52350   1.00
O2       0.41180    1.02350    0.52350   1.00
O2       0.52350    0.97650    0.58820   1.00
O2       0.58820    0.97650    0.52350   1.00
O2       0.52350    0.91180    0.52350   1.00
O2       0.52350    1.08820    0.47650   1.00
O2       0.58820    1.02350    0.47650   1.00
O2       0.52350    1.02350    0.41180   1.00
O2       0.41180    0.97650    0.47650   1.00
O2       0.47650    0.91180    0.47650   1.00
O2       0.47650    0.97650    0.41180   1.00
C1       0.50000    1.00000    0.60520   1.00
C1       0.50000    1.10520    0.50000   1.00
C1       0.39480    1.00000    0.50000   1.00
C1       0.60520    1.00000    0.50000   1.00
C1       0.50000    0.89480    0.50000   1.00
C1       0.50000    1.00000    0.39480   1.00
O1       1.00000    0.50000    0.50000   1.00
Zn1      0.96720    0.53280    0.53280   1.00
Zn1      1.03280    0.46720    0.53280   1.00
Zn1      1.03280    0.53280    0.46720   1.00
Zn1      0.96720    0.46720    0.46720   1.00
O2       0.97650    0.52350    0.58820   1.00
O2       0.97650    0.58820    0.52350   1.00
O2       0.91180    0.52350    0.52350   1.00
O2       1.02350    0.47650    0.58820   1.00
O2       1.08820    0.47650    0.52350   1.00
O2       1.02350    0.41180    0.52350   1.00
O2       1.02350    0.58820    0.47650   1.00
O2       1.08820    0.52350    0.47650   1.00
O2       1.02350    0.52350    0.41180   1.00
O2       0.91180    0.47650    0.47650   1.00
O2       0.97650    0.41180    0.47650   1.00
O2       0.97650    0.47650    0.41180   1.00
C1       1.00000    0.50000    0.60520   1.00
C1       1.00000    0.60520    0.50000   1.00
C1       0.89480    0.50000    0.50000   1.00
C1       1.10520    0.50000    0.50000   1.00
C1       1.00000    0.39480    0.50000   1.00
C1       1.00000    0.50000    0.39480   1.00
O1       0.50000    0.50000    0.50000   1.00
Zn1      0.53280    0.46720    0.46720   1.00
Zn1      0.46720    0.53280    0.46720   1.00
Zn1      0.46720    0.46720    0.53280   1.00
Zn1      0.53280    0.53280    0.53280   1.00
O2       0.52350    0.47650    0.41180   1.00
O2       0.52350    0.41180    0.47650   1.00
O2       0.58820    0.47650    0.47650   1.00
O2       0.47650    0.52350    0.41180   1.00
O2       0.41180    0.52350    0.47650   1.00
O2       0.47650    0.58820    0.47650   1.00
O2       0.47650    0.41180    0.52350   1.00
O2       0.41180    0.47650    0.52350   1.00
O2       0.47650    0.47650    0.58820   1.00
O2       0.58820    0.52350    0.52350   1.00
O2       0.52350    0.58820    0.52350   1.00
O2       0.52350    0.52350    0.58820   1.00
C1       0.50000    0.50000    0.39480   1.00
C1       0.50000    0.39480    0.50000   1.00
C1       0.60520    0.50000    0.50000   1.00
C1       0.39480    0.50000    0.50000   1.00
C1       0.50000    0.60520    0.50000   1.00
C1       0.50000    0.50000    0.60520   1.00
O1       1.00000    1.00000    0.50000   1.00
Zn1      1.03280    0.96720    0.46720   1.00
Zn1      0.96720    1.03280    0.46720   1.00
Zn1      0.96720    0.96720    0.53280   1.00
Zn1      1.03280    1.03280    0.53280   1.00
O2       1.02350    0.97650    0.41180   1.00
O2       1.02350    0.91180    0.47650   1.00
O2       1.08820    0.97650    0.47650   1.00
O2       0.97650    1.02350    0.41180   1.00
O2       0.91180    1.02350    0.47650   1.00
O2       0.97650    1.08820    0.47650   1.00
O2       0.97650    0.91180    0.52350   1.00
O2       0.91180    0.97650    0.52350   1.00
O2       0.97650    0.97650    0.58820   1.00
O2       1.08820    1.02350    0.52350   1.00
O2       1.02350    1.08820    0.52350   1.00
O2       1.02350    1.02350    0.58820   1.00
C1       1.00000    1.00000    0.39480   1.00
C1       1.00000    0.89480    0.50000   1.00
C1       1.10520    1.00000    0.50000   1.00
C1       0.89480    1.00000    0.50000   1.00
C1       1.00000    1.10520    0.50000   1.00
C1       1.00000    1.00000    0.60520   1.00
O1       1.00000    0.50000    1.00000   1.00
Zn1      1.03280    0.46720    0.96720   1.00
Zn1      0.96720    0.53280    0.96720   1.00
Zn1      0.96720    0.46720    1.03280   1.00
Zn1      1.03280    0.53280    1.03280   1.00
O2       1.02350    0.47650    0.91180   1.00
O2       1.02350    0.41180    0.97650   1.00
O2       1.08820    0.47650    0.97650   1.00
O2       0.97650    0.52350    0.91180   1.00
O2       0.91180    0.52350    0.97650   1.00
O2       0.97650    0.58820    0.97650   1.00
O2       0.97650    0.41180    1.02350   1.00
O2       0.91180    0.47650    1.02350   1.00
O2       0.97650    0.47650    1.08820   1.00
O2       1.08820    0.52350    1.02350   1.00
O2       1.02350    0.58820    1.02350   1.00
O2       1.02350    0.52350    1.08820   1.00
C1       1.00000    0.50000    0.89480   1.00
C1       1.00000    0.39480    1.00000   1.00
C1       1.10520    0.50000    1.00000   1.00
C1       0.89480    0.50000    1.00000   1.00
C1       1.00000    0.60520    1.00000   1.00
C1       1.00000    0.50000    1.10520   1.00
O1       0.50000    1.00000    1.00000   1.00
Zn1      0.53280    0.96720    0.96720   1.00
Zn1      0.46720    1.03280    0.96720   1.00
Zn1      0.46720    0.96720    1.03280   1.00
Zn1      0.53280    1.03280    1.03280   1.00
O2       0.52350    0.97650    0.91180   1.00
O2       0.52350    0.91180    0.97650   1.00
O2       0.58820    0.97650    0.97650   1.00
O2       0.47650    1.02350    0.91180   1.00
O2       0.41180    1.02350    0.97650   1.00
O2       0.47650    1.08820    0.97650   1.00
O2       0.47650    0.91180    1.02350   1.00
O2       0.41180    0.97650    1.02350   1.00
O2       0.47650    0.97650    1.08820   1.00
O2       0.58820    1.02350    1.02350   1.00
O2       0.52350    1.08820    1.02350   1.00
O2       0.52350    1.02350    1.08820   1.00
C1       0.50000    1.00000    0.89480   1.00
C1       0.50000    0.89480    1.00000   1.00
C1       0.60520    1.00000    1.00000   1.00
C1       0.39480    1.00000    1.00000   1.00
C1       0.50000    1.10520    1.00000   1.00
C1       0.50000    1.00000    1.10520   1.00
C4       0.75040    0.74698    1.02084   1.00
C4       0.74981    0.74741    0.97912   1.00
C3       0.73589    0.71558    1.04364   1.00
C3       0.73150    0.71818    0.95616   1.00
C3       0.76575    0.77991    1.04123   1.00
C3       0.76857    0.77860    0.95886   1.00
C2       0.75087    0.74917    1.10512   1.00
C2       0.74913    0.75083    0.89488   1.00
C3       0.73590    0.71671    1.08462   1.00
C3       0.73147    0.71962    0.91519   1.00
C3       0.76617    0.78017    1.08258   1.00
C3       0.76676    0.78039    0.91762   1.00
H1       0.72501    0.69090    1.03115   1.00
H1       0.71743    0.69510    0.96852   1.00
C5       0.78074    0.81227    1.02020   1.00
C5       0.78872    0.80803    0.97980   1.00
H1       0.72476    0.69325    1.09955   1.00
H1       0.71806    0.69749    0.90010   1.00
H1       0.77826    0.80351    1.09680   1.00
H1       0.77816    0.80418    0.90368   1.00
O3       0.78942    0.84640    1.03961   1.00
O3       0.81335    0.83385    0.96099   1.00
Si1      0.75678    0.88100    1.04247   1.00
Si1      0.85841    0.82082    0.95279   1.00
C6       0.78241    0.91123    1.07538   1.00
C6       0.75331    0.90276    0.99598   1.00
C6       0.71204    0.86520    1.06253   1.00
C6       0.87309    0.77342    0.96693   1.00
C6       0.86283    0.82560    0.90198   1.00
C6       0.88868    0.85607    0.97477   1.00
C6       0.80028    0.89032    1.11194   1.00
H2       0.80741    0.92050    1.05791   1.00
C6       0.76369    0.94983    1.09147   1.00
H2       0.78193    0.89639    0.98358   1.00
C6       0.72294    0.88592    0.96634   1.00
C6       0.74863    0.94812    0.99336   1.00
H2       0.72158    0.84902    1.08831   1.00
C6       0.68335    0.89741    1.07772   1.00
C6       0.68524    0.83677    1.03849   1.00
C6       0.86808    0.76156    1.01071   1.00
C6       0.85967    0.73736    0.94225   1.00
H2       0.90456    0.77441    0.96212   1.00
H2       0.84494    0.80189    0.89051   1.00
C6       0.84550    0.86377    0.88378   1.00
C6       0.90441    0.82028    0.88393   1.00
H2       0.88919    0.88001    0.95375   1.00
C6       0.87332    0.87463    1.01336   1.00
C6       0.93239    0.84513    0.98244   1.00
H2       0.81933    0.86621    1.10346   1.00
H2       0.77744    0.87865    1.13090   1.00
H2       0.81810    0.91040    1.12917   1.00
H2       0.78632    0.97185    1.09608   1.00
H2       0.74217    0.96229    1.07178   1.00
H2       0.74942    0.94551    1.11964   1.00
H2       0.72929    0.89598    0.93672   1.00
H2       0.72357    0.85420    0.96532   1.00
H2       0.69337    0.89534    0.97352   1.00
H2       0.77220    0.96315    1.00862   1.00
H2       0.74984    0.95818    0.96308   1.00
H2       0.72070    0.95753    1.00550   1.00
H2       0.67742    0.91911    1.05514   1.00
H2       0.65539    0.88515    1.08708   1.00
H2       0.69496    0.91206    1.10332   1.00
H2       0.66553    0.85248    1.01902   1.00
H2       0.70138    0.81625    1.02068   1.00
H2       0.66709    0.81951    1.05828   1.00
H2       0.83856    0.75152    1.01688   1.00
H2       0.88780    0.73758    1.01809   1.00
H2       0.87477    0.78549    1.03048   1.00
H2       0.87543    0.71109    0.95125   1.00
H2       0.82873    0.73120    0.94574   1.00
H2       0.86566    0.74114    0.91122   1.00
H2       0.84360    0.86110    0.85202   1.00
H2       0.81593    0.86932    0.89435   1.00
H2       0.86335    0.88930    0.89035   1.00
H2       0.91838    0.79356    0.89416   1.00
H2       0.90255    0.81821    0.85212   1.00
H2       0.92335    0.84496    0.89085   1.00
H2       0.87006    0.85311    1.03656   1.00
H2       0.89263    0.89774    1.02381   1.00
H2       0.84497    0.88784    1.00834   1.00
H2       0.94931    0.87099    0.99044   1.00
H2       0.93513    0.82407    1.00622   1.00
H2       0.94618    0.83280    0.95657   1.00
C4       0.74698    1.02084    0.75040   1.00
C4       0.74741    0.97912    0.74981   1.00
C3       0.71558    1.04364    0.73589   1.00
C3       0.71818    0.95616    0.73150   1.00
C3       0.77991    1.04123    0.76575   1.00
C3       0.77860    0.95886    0.76857   1.00
C2       0.74917    1.10512    0.75087   1.00
C2       0.75083    0.89488    0.74913   1.00
C3       0.71671    1.08462    0.73590   1.00
C3       0.71962    0.91519    0.73147   1.00
C3       0.78017    1.08258    0.76617   1.00
C3       0.78039    0.91762    0.76676   1.00
H1       0.69090    1.03115    0.72501   1.00
H1       0.69510    0.96852    0.71743   1.00
C5       0.81227    1.02020    0.78074   1.00
C5       0.80803    0.97980    0.78872   1.00
H1       0.69325    1.09955    0.72476   1.00
H1       0.69749    0.90010    0.71806   1.00
H1       0.80351    1.09680    0.77826   1.00
H1       0.80418    0.90368    0.77816   1.00
O3       0.84640    1.03961    0.78942   1.00
O3       0.83385    0.96099    0.81335   1.00
Si1      0.88100    1.04247    0.75678   1.00
Si1      0.82082    0.95279    0.85841   1.00
C6       0.91123    1.07538    0.78241   1.00
C6       0.90276    0.99598    0.75331   1.00
C6       0.86520    1.06253    0.71204   1.00
C6       0.77342    0.96693    0.87309   1.00
C6       0.82560    0.90198    0.86283   1.00
C6       0.85607    0.97477    0.88868   1.00
C6       0.89032    1.11194    0.80028   1.00
H2       0.92050    1.05791    0.80741   1.00
C6       0.94983    1.09147    0.76369   1.00
H2       0.89639    0.98358    0.78193   1.00
C6       0.88592    0.96634    0.72294   1.00
C6       0.94812    0.99336    0.74863   1.00
H2       0.84902    1.08831    0.72158   1.00
C6       0.89741    1.07772    0.68335   1.00
C6       0.83677    1.03849    0.68524   1.00
C6       0.76156    1.01071    0.86808   1.00
C6       0.73736    0.94225    0.85967   1.00
H2       0.77441    0.96212    0.90456   1.00
H2       0.80189    0.89051    0.84494   1.00
C6       0.86377    0.88378    0.84550   1.00
C6       0.82028    0.88393    0.90441   1.00
H2       0.88001    0.95375    0.88919   1.00
C6       0.87463    1.01336    0.87332   1.00
C6       0.84513    0.98244    0.93239   1.00
H2       0.86621    1.10346    0.81933   1.00
H2       0.87865    1.13090    0.77744   1.00
H2       0.91040    1.12917    0.81810   1.00
H2       0.97185    1.09608    0.78632   1.00
H2       0.96229    1.07178    0.74217   1.00
H2       0.94551    1.11964    0.74942   1.00
H2       0.89598    0.93672    0.72929   1.00
H2       0.85420    0.96532    0.72357   1.00
H2       0.89534    0.97352    0.69337   1.00
H2       0.96315    1.00862    0.77220   1.00
H2       0.95818    0.96308    0.74984   1.00
H2       0.95753    1.00550    0.72070   1.00
H2       0.91911    1.05514    0.67742   1.00
H2       0.88515    1.08708    0.65539   1.00
H2       0.91206    1.10332    0.69496   1.00
H2       0.85248    1.01902    0.66553   1.00
H2       0.81625    1.02068    0.70138   1.00
H2       0.81951    1.05828    0.66709   1.00
H2       0.75152    1.01688    0.83856   1.00
H2       0.73758    1.01809    0.88780   1.00
H2       0.78549    1.03048    0.87477   1.00
H2       0.71109    0.95125    0.87543   1.00
H2       0.73120    0.94574    0.82873   1.00
H2       0.74114    0.91122    0.86566   1.00
H2       0.86110    0.85202    0.84360   1.00
H2       0.86932    0.89435    0.81593   1.00
H2       0.88930    0.89035    0.86335   1.00
H2       0.79356    0.89416    0.91838   1.00
H2       0.81821    0.85212    0.90255   1.00
H2       0.84496    0.89085    0.92335   1.00
H2       0.85311    1.03656    0.87006   1.00
H2       0.89774    1.02381    0.89263   1.00
H2       0.88784    1.00834    0.84497   1.00
H2       0.87099    0.99044    0.94931   1.00
H2       0.82407    1.00622    0.93513   1.00
H2       0.83280    0.95657    0.94618   1.00
C4       0.47916    0.75040    0.75302   1.00
C4       0.52088    0.74981    0.75259   1.00
C3       0.45636    0.73589    0.78442   1.00
C3       0.54384    0.73150    0.78182   1.00
C3       0.45877    0.76575    0.72009   1.00
C3       0.54114    0.76857    0.72140   1.00
C2       0.39488    0.75087    0.75083   1.00
C2       0.60512    0.74913    0.74917   1.00
C3       0.41538    0.73590    0.78329   1.00
C3       0.58481    0.73147    0.78038   1.00
C3       0.41742    0.76617    0.71983   1.00
C3       0.58238    0.76676    0.71961   1.00
H1       0.46885    0.72501    0.80910   1.00
H1       0.53148    0.71743    0.80490   1.00
C5       0.47980    0.78074    0.68773   1.00
C5       0.52020    0.78872    0.69197   1.00
H1       0.40045    0.72476    0.80675   1.00
H1       0.59990    0.71806    0.80251   1.00
H1       0.40320    0.77826    0.69649   1.00
H1       0.59632    0.77816    0.69582   1.00
O3       0.46039    0.78942    0.65360   1.00
O3       0.53901    0.81335    0.66615   1.00
Si1      0.45753    0.75678    0.61900   1.00
Si1      0.54721    0.85841    0.67918   1.00
C6       0.42462    0.78241    0.58877   1.00
C6       0.50402    0.75331    0.59724   1.00
C6       0.43747    0.71204    0.63480   1.00
C6       0.53307    0.87309    0.72658   1.00
C6       0.59802    0.86283    0.67440   1.00
C6       0.52523    0.88868    0.64393   1.00
C6       0.38806    0.80028    0.60968   1.00
H2       0.44209    0.80741    0.57950   1.00
C6       0.40853    0.76369    0.55017   1.00
H2       0.51642    0.78193    0.60361   1.00
C6       0.53366    0.72294    0.61408   1.00
C6       0.50664    0.74863    0.55188   1.00
H2       0.41169    0.72158    0.65098   1.00
C6       0.42228    0.68335    0.60259   1.00
C6       0.46151    0.68524    0.66323   1.00
C6       0.48929    0.86808    0.73844   1.00
C6       0.55775    0.85967    0.76264   1.00
H2       0.53788    0.90456    0.72559   1.00
H2       0.60949    0.84494    0.69811   1.00
C6       0.61622    0.84550    0.63623   1.00
C6       0.61607    0.90441    0.67972   1.00
H2       0.54625    0.88919    0.61999   1.00
C6       0.48664    0.87332    0.62537   1.00
C6       0.51756    0.93239    0.65487   1.00
H2       0.39654    0.81933    0.63379   1.00
H2       0.36910    0.77744    0.62135   1.00
H2       0.37083    0.81810    0.58960   1.00
H2       0.40392    0.78632    0.52815   1.00
H2       0.42822    0.74217    0.53771   1.00
H2       0.38036    0.74942    0.55449   1.00
H2       0.56328    0.72929    0.60402   1.00
H2       0.53468    0.72357    0.64580   1.00
H2       0.52648    0.69337    0.60466   1.00
H2       0.49138    0.77220    0.53685   1.00
H2       0.53692    0.74984    0.54182   1.00
H2       0.49450    0.72070    0.54247   1.00
H2       0.44486    0.67742    0.58089   1.00
H2       0.41292    0.65539    0.61485   1.00
H2       0.39668    0.69496    0.58794   1.00
H2       0.48098    0.66553    0.64752   1.00
H2       0.47932    0.70138    0.68375   1.00
H2       0.44172    0.66709    0.68049   1.00
H2       0.48312    0.83856    0.74848   1.00
H2       0.48191    0.88780    0.76242   1.00
H2       0.46952    0.87477    0.71451   1.00
H2       0.54875    0.87543    0.78891   1.00
H2       0.55426    0.82873    0.76880   1.00
H2       0.58878    0.86566    0.75886   1.00
H2       0.64798    0.84360    0.63890   1.00
H2       0.60565    0.81593    0.63068   1.00
H2       0.60965    0.86335    0.61070   1.00
H2       0.60584    0.91838    0.70644   1.00
H2       0.64788    0.90255    0.68179   1.00
H2       0.60915    0.92335    0.65504   1.00
H2       0.46344    0.87006    0.64689   1.00
H2       0.47619    0.89263    0.60226   1.00
H2       0.49166    0.84497    0.61216   1.00
H2       0.50956    0.94931    0.62901   1.00
H2       0.49378    0.93513    0.67593   1.00
H2       0.54343    0.94618    0.66720   1.00
C4       1.02084    0.75040    0.74698   1.00
C4       0.97912    0.74981    0.74741   1.00
C3       1.04364    0.73589    0.71558   1.00
C3       0.95616    0.73150    0.71818   1.00
C3       1.04123    0.76575    0.77991   1.00
C3       0.95886    0.76857    0.77860   1.00
C2       1.10512    0.75087    0.74917   1.00
C2       0.89488    0.74913    0.75083   1.00
C3       1.08462    0.73590    0.71671   1.00
C3       0.91519    0.73147    0.71962   1.00
C3       1.08258    0.76617    0.78017   1.00
C3       0.91762    0.76676    0.78039   1.00
H1       1.03115    0.72501    0.69090   1.00
H1       0.96852    0.71743    0.69510   1.00
C5       1.02020    0.78074    0.81227   1.00
C5       0.97980    0.78872    0.80803   1.00
H1       1.09955    0.72476    0.69325   1.00
H1       0.90010    0.71806    0.69749   1.00
H1       1.09680    0.77826    0.80351   1.00
H1       0.90368    0.77816    0.80418   1.00
O3       1.03961    0.78942    0.84640   1.00
O3       0.96099    0.81335    0.83385   1.00
Si1      1.04247    0.75678    0.88100   1.00
Si1      0.95279    0.85841    0.82082   1.00
C6       1.07538    0.78241    0.91123   1.00
C6       0.99598    0.75331    0.90276   1.00
C6       1.06253    0.71204    0.86520   1.00
C6       0.96693    0.87309    0.77342   1.00
C6       0.90198    0.86283    0.82560   1.00
C6       0.97477    0.88868    0.85607   1.00
C6       1.11194    0.80028    0.89032   1.00
H2       1.05791    0.80741    0.92050   1.00
C6       1.09147    0.76369    0.94983   1.00
H2       0.98358    0.78193    0.89639   1.00
C6       0.96634    0.72294    0.88592   1.00
C6       0.99336    0.74863    0.94812   1.00
H2       1.08831    0.72158    0.84902   1.00
C6       1.07772    0.68335    0.89741   1.00
C6       1.03849    0.68524    0.83677   1.00
C6       1.01071    0.86808    0.76156   1.00
C6       0.94225    0.85967    0.73736   1.00
H2       0.96212    0.90456    0.77441   1.00
H2       0.89051    0.84494    0.80189   1.00
C6       0.88378    0.84550    0.86377   1.00
C6       0.88393    0.90441    0.82028   1.00
H2       0.95375    0.88919    0.88001   1.00
C6       1.01336    0.87332    0.87463   1.00
C6       0.98244    0.93239    0.84513   1.00
H2       1.10346    0.81933    0.86621   1.00
H2       1.13090    0.77744    0.87865   1.00
H2       1.12917    0.81810    0.91040   1.00
H2       1.09608    0.78632    0.97185   1.00
H2       1.07178    0.74217    0.96229   1.00
H2       1.11964    0.74942    0.94551   1.00
H2       0.93672    0.72929    0.89598   1.00
H2       0.96532    0.72357    0.85420   1.00
H2       0.97352    0.69337    0.89534   1.00
H2       1.00862    0.77220    0.96315   1.00
H2       0.96308    0.74984    0.95818   1.00
H2       1.00550    0.72070    0.95753   1.00
H2       1.05514    0.67742    0.91911   1.00
H2       1.08708    0.65539    0.88515   1.00
H2       1.10332    0.69496    0.91206   1.00
H2       1.01902    0.66553    0.85248   1.00
H2       1.02068    0.70138    0.81625   1.00
H2       1.05828    0.66709    0.81951   1.00
H2       1.01688    0.83856    0.75152   1.00
H2       1.01809    0.88780    0.73758   1.00
H2       1.03048    0.87477    0.78549   1.00
H2       0.95125    0.87543    0.71109   1.00
H2       0.94574    0.82873    0.73120   1.00
H2       0.91122    0.86566    0.74114   1.00
H2       0.85202    0.84360    0.86110   1.00
H2       0.89435    0.81593    0.86932   1.00
H2       0.89035    0.86335    0.88930   1.00
H2       0.89416    0.91838    0.79356   1.00
H2       0.85212    0.90255    0.81821   1.00
H2       0.89085    0.92335    0.84496   1.00
H2       1.03656    0.87006    0.85311   1.00
H2       1.02381    0.89263    0.89774   1.00
H2       1.00834    0.84497    0.88784   1.00
H2       0.99044    0.94931    0.87099   1.00
H2       1.00622    0.93513    0.82407   1.00
H2       0.95657    0.94618    0.83280   1.00
C4       0.75302    0.47916    0.75040   1.00
C4       0.75259    0.52088    0.74981   1.00
C3       0.78442    0.45636    0.73589   1.00
C3       0.78182    0.54384    0.73150   1.00
C3       0.72009    0.45877    0.76575   1.00
C3       0.72140    0.54114    0.76857   1.00
C2       0.75083    0.39488    0.75087   1.00
C2       0.74917    0.60512    0.74913   1.00
C3       0.78329    0.41538    0.73590   1.00
C3       0.78038    0.58481    0.73147   1.00
C3       0.71983    0.41742    0.76617   1.00
C3       0.71961    0.58238    0.76676   1.00
H1       0.80910    0.46885    0.72501   1.00
H1       0.80490    0.53148    0.71743   1.00
C5       0.68773    0.47980    0.78074   1.00
C5       0.69197    0.52020    0.78872   1.00
H1       0.80675    0.40045    0.72476   1.00
H1       0.80251    0.59990    0.71806   1.00
H1       0.69649    0.40320    0.77826   1.00
H1       0.69582    0.59632    0.77816   1.00
O3       0.65360    0.46039    0.78942   1.00
O3       0.66615    0.53901    0.81335   1.00
Si1      0.61900    0.45753    0.75678   1.00
Si1      0.67918    0.54721    0.85841   1.00
C6       0.58877    0.42462    0.78241   1.00
C6       0.59724    0.50402    0.75331   1.00
C6       0.63480    0.43747    0.71204   1.00
C6       0.72658    0.53307    0.87309   1.00
C6       0.67440    0.59802    0.86283   1.00
C6       0.64393    0.52523    0.88868   1.00
C6       0.60968    0.38806    0.80028   1.00
H2       0.57950    0.44209    0.80741   1.00
C6       0.55017    0.40853    0.76369   1.00
H2       0.60361    0.51642    0.78193   1.00
C6       0.61408    0.53366    0.72294   1.00
C6       0.55188    0.50664    0.74863   1.00
H2       0.65098    0.41169    0.72158   1.00
C6       0.60259    0.42228    0.68335   1.00
C6       0.66323    0.46151    0.68524   1.00
C6       0.73844    0.48929    0.86808   1.00
C6       0.76264    0.55775    0.85967   1.00
H2       0.72559    0.53788    0.90456   1.00
H2       0.69811    0.60949    0.84494   1.00
C6       0.63623    0.61622    0.84550   1.00
C6       0.67972    0.61607    0.90441   1.00
H2       0.61999    0.54625    0.88919   1.00
C6       0.62537    0.48664    0.87332   1.00
C6       0.65487    0.51756    0.93239   1.00
H2       0.63379    0.39654    0.81933   1.00
H2       0.62135    0.36910    0.77744   1.00
H2       0.58960    0.37083    0.81810   1.00
H2       0.52815    0.40392    0.78632   1.00
H2       0.53771    0.42822    0.74217   1.00
H2       0.55449    0.38036    0.74942   1.00
H2       0.60402    0.56328    0.72929   1.00
H2       0.64580    0.53468    0.72357   1.00
H2       0.60466    0.52648    0.69337   1.00
H2       0.53685    0.49138    0.77220   1.00
H2       0.54182    0.53692    0.74984   1.00
H2       0.54247    0.49450    0.72070   1.00
H2       0.58089    0.44486    0.67742   1.00
H2       0.61485    0.41292    0.65539   1.00
H2       0.58794    0.39668    0.69496   1.00
H2       0.64752    0.48098    0.66553   1.00
H2       0.68375    0.47932    0.70138   1.00
H2       0.68049    0.44172    0.66709   1.00
H2       0.74848    0.48312    0.83856   1.00
H2       0.76242    0.48191    0.88780   1.00
H2       0.71451    0.46952    0.87477   1.00
H2       0.78891    0.54875    0.87543   1.00
H2       0.76880    0.55426    0.82873   1.00
H2       0.75886    0.58878    0.86566   1.00
H2       0.63890    0.64798    0.84360   1.00
H2       0.63068    0.60565    0.81593   1.00
H2       0.61070    0.60965    0.86335   1.00
H2       0.70644    0.60584    0.91838   1.00
H2       0.68179    0.64788    0.90255   1.00
H2       0.65504    0.60915    0.92335   1.00
H2       0.64689    0.46344    0.87006   1.00
H2       0.60226    0.47619    0.89263   1.00
H2       0.61216    0.49166    0.84497   1.00
H2       0.62901    0.50956    0.94931   1.00
H2       0.67593    0.49378    0.93513   1.00
H2       0.66720    0.54343    0.94618   1.00
C4       0.75040    0.75302    0.47916   1.00
C4       0.74981    0.75259    0.52088   1.00
C3       0.73589    0.78442    0.45636   1.00
C3       0.73150    0.78182    0.54384   1.00
C3       0.76575    0.72009    0.45877   1.00
C3       0.76857    0.72140    0.54114   1.00
C2       0.75087    0.75083    0.39488   1.00
C2       0.74913    0.74917    0.60512   1.00
C3       0.73590    0.78329    0.41538   1.00
C3       0.73147    0.78038    0.58481   1.00
C3       0.76617    0.71983    0.41742   1.00
C3       0.76676    0.71961    0.58238   1.00
H1       0.72501    0.80910    0.46885   1.00
H1       0.71743    0.80490    0.53148   1.00
C5       0.78074    0.68773    0.47980   1.00
C5       0.78872    0.69197    0.52020   1.00
H1       0.72476    0.80675    0.40045   1.00
H1       0.71806    0.80251    0.59990   1.00
H1       0.77826    0.69649    0.40320   1.00
H1       0.77816    0.69582    0.59632   1.00
O3       0.78942    0.65360    0.46039   1.00
O3       0.81335    0.66615    0.53901   1.00
Si1      0.75678    0.61900    0.45753   1.00
Si1      0.85841    0.67918    0.54721   1.00
C6       0.78241    0.58877    0.42462   1.00
C6       0.75331    0.59724    0.50402   1.00
C6       0.71204    0.63480    0.43747   1.00
C6       0.87309    0.72658    0.53307   1.00
C6       0.86283    0.67440    0.59802   1.00
C6       0.88868    0.64393    0.52523   1.00
C6       0.80028    0.60968    0.38806   1.00
H2       0.80741    0.57950    0.44209   1.00
C6       0.76369    0.55017    0.40853   1.00
H2       0.78193    0.60361    0.51642   1.00
C6       0.72294    0.61408    0.53366   1.00
C6       0.74863    0.55188    0.50664   1.00
H2       0.72158    0.65098    0.41169   1.00
C6       0.68335    0.60259    0.42228   1.00
C6       0.68524    0.66323    0.46151   1.00
C6       0.86808    0.73844    0.48929   1.00
C6       0.85967    0.76264    0.55775   1.00
H2       0.90456    0.72559    0.53788   1.00
H2       0.84494    0.69811    0.60949   1.00
C6       0.84550    0.63623    0.61622   1.00
C6       0.90441    0.67972    0.61607   1.00
H2       0.88919    0.61999    0.54625   1.00
C6       0.87332    0.62537    0.48664   1.00
C6       0.93239    0.65487    0.51756   1.00
H2       0.81933    0.63379    0.39654   1.00
H2       0.77744    0.62135    0.36910   1.00
H2       0.81810    0.58960    0.37083   1.00
H2       0.78632    0.52815    0.40392   1.00
H2       0.74217    0.53771    0.42822   1.00
H2       0.74942    0.55449    0.38036   1.00
H2       0.72929    0.60402    0.56328   1.00
H2       0.72357    0.64580    0.53468   1.00
H2       0.69337    0.60466    0.52648   1.00
H2       0.77220    0.53685    0.49138   1.00
H2       0.74984    0.54182    0.53692   1.00
H2       0.72070    0.54247    0.49450   1.00
H2       0.67742    0.58089    0.44486   1.00
H2       0.65539    0.61485    0.41292   1.00
H2       0.69496    0.58794    0.39668   1.00
H2       0.66553    0.64752    0.48098   1.00
H2       0.70138    0.68375    0.47932   1.00
H2       0.66709    0.68049    0.44172   1.00
H2       0.83856    0.74848    0.48312   1.00
H2       0.88780    0.76242    0.48191   1.00
H2       0.87477    0.71451    0.46952   1.00
H2       0.87543    0.78891    0.54875   1.00
H2       0.82873    0.76880    0.55426   1.00
H2       0.86566    0.75886    0.58878   1.00
H2       0.84360    0.63890    0.64798   1.00
H2       0.81593    0.63068    0.60565   1.00
H2       0.86335    0.61070    0.60965   1.00
H2       0.91838    0.70644    0.60584   1.00
H2       0.90255    0.68179    0.64788   1.00
H2       0.92335    0.65504    0.60915   1.00
H2       0.87006    0.64689    0.46344   1.00
H2       0.89263    0.60226    0.47619   1.00
H2       0.84497    0.61216    0.49166   1.00
H2       0.94931    0.62901    0.50956   1.00
H2       0.93513    0.67593    0.49378   1.00
H2       0.94618    0.66720    0.54343   1.00
C4       0.25040    0.24698    1.02084   1.00
C4       0.24981    0.24741    0.97912   1.00
C3       0.23589    0.21558    1.04364   1.00
C3       0.23150    0.21818    0.95616   1.00
C3       0.26575    0.27991    1.04123   1.00
C3       0.26857    0.27860    0.95886   1.00
C2       0.25087    0.24917    1.10512   1.00
C2       0.24913    0.25083    0.89488   1.00
C3       0.23590    0.21671    1.08462   1.00
C3       0.23147    0.21962    0.91519   1.00
C3       0.26617    0.28017    1.08258   1.00
C3       0.26676    0.28039    0.91762   1.00
H1       0.22501    0.19090    1.03115   1.00
H1       0.21743    0.19510    0.96852   1.00
C5       0.28074    0.31227    1.02020   1.00
C5       0.28872    0.30803    0.97980   1.00
H1       0.22476    0.19325    1.09955   1.00
H1       0.21806    0.19749    0.90010   1.00
H1       0.27826    0.30351    1.09680   1.00
H1       0.27816    0.30418    0.90368   1.00
O3       0.28942    0.34640    1.03961   1.00
O3       0.31335    0.33385    0.96099   1.00
Si1      0.25678    0.38100    1.04247   1.00
Si1      0.35841    0.32082    0.95279   1.00
C6       0.28241    0.41123    1.07538   1.00
C6       0.25331    0.40276    0.99598   1.00
C6       0.21204    0.36520    1.06253   1.00
C6       0.37309    0.27342    0.96693   1.00
C6       0.36283    0.32560    0.90198   1.00
C6       0.38868    0.35607    0.97477   1.00
C6       0.30028    0.39032    1.11194   1.00
H2       0.30741    0.42050    1.05791   1.00
C6       0.26369    0.44983    1.09147   1.00
H2       0.28193    0.39639    0.98358   1.00
C6       0.22294    0.38592    0.96634   1.00
C6       0.24863    0.44812    0.99336   1.00
H2       0.22158    0.34902    1.08831   1.00
C6       0.18335    0.39741    1.07772   1.00
C6       0.18524    0.33677    1.03849   1.00
C6       0.36808    0.26156    1.01071   1.00
C6       0.35967    0.23736    0.94225   1.00
H2       0.40456    0.27441    0.96212   1.00
H2       0.34494    0.30189    0.89051   1.00
C6       0.34550    0.36377    0.88378   1.00
C6       0.40441    0.32028    0.88393   1.00
H2       0.38919    0.38001    0.95375   1.00
C6       0.37332    0.37463    1.01336   1.00
C6       0.43239    0.34513    0.98244   1.00
H2       0.31933    0.36621    1.10346   1.00
H2       0.27744    0.37865    1.13090   1.00
H2       0.31810    0.41040    1.12917   1.00
H2       0.28632    0.47185    1.09608   1.00
H2       0.24217    0.46229    1.07178   1.00
H2       0.24942    0.44551    1.11964   1.00
H2       0.22929    0.39598    0.93672   1.00
H2       0.22357    0.35420    0.96532   1.00
H2       0.19337    0.39534    0.97352   1.00
H2       0.27220    0.46315    1.00862   1.00
H2       0.24984    0.45818    0.96308   1.00
H2       0.22070    0.45753    1.00550   1.00
H2       0.17742    0.41911    1.05514   1.00
H2       0.15539    0.38515    1.08708   1.00
H2       0.19496    0.41206    1.10332   1.00
H2       0.16553    0.35248    1.01902   1.00
H2       0.20138    0.31625    1.02068   1.00
H2       0.16709    0.31951    1.05828   1.00
H2       0.33856    0.25152    1.01688   1.00
H2       0.38780    0.23758    1.01809   1.00
H2       0.37477    0.28549    1.03048   1.00
H2       0.37543    0.21109    0.95125   1.00
H2       0.32873    0.23120    0.94574   1.00
H2       0.36566    0.24114    0.91122   1.00
H2       0.34360    0.36110    0.85202   1.00
H2       0.31593    0.36932    0.89435   1.00
H2       0.36335    0.38930    0.89035   1.00
H2       0.41838    0.29356    0.89416   1.00
H2       0.40255    0.31821    0.85212   1.00
H2       0.42335    0.34496    0.89085   1.00
H2       0.37006    0.35311    1.03656   1.00
H2       0.39263    0.39774    1.02381   1.00
H2       0.34497    0.38784    1.00834   1.00
H2       0.44931    0.37099    0.99044   1.00
H2       0.43513    0.32407    1.00622   1.00
H2       0.44618    0.33280    0.95657   1.00
C4       0.24698    0.52084    0.75040   1.00
C4       0.24741    0.47912    0.74981   1.00
C3       0.21558    0.54364    0.73589   1.00
C3       0.21818    0.45616    0.73150   1.00
C3       0.27991    0.54123    0.76575   1.00
C3       0.27860    0.45886    0.76857   1.00
C2       0.24917    0.60512    0.75087   1.00
C2       0.25083    0.39488    0.74913   1.00
C3       0.21671    0.58462    0.73590   1.00
C3       0.21962    0.41519    0.73147   1.00
C3       0.28017    0.58258    0.76617   1.00
C3       0.28039    0.41762    0.76676   1.00
H1       0.19090    0.53115    0.72501   1.00
H1       0.19510    0.46852    0.71743   1.00
C5       0.31227    0.52020    0.78074   1.00
C5       0.30803    0.47980    0.78872   1.00
H1       0.19325    0.59955    0.72476   1.00
H1       0.19749    0.40010    0.71806   1.00
H1       0.30351    0.59680    0.77826   1.00
H1       0.30418    0.40368    0.77816   1.00
O3       0.34640    0.53961    0.78942   1.00
O3       0.33385    0.46099    0.81335   1.00
Si1      0.38100    0.54247    0.75678   1.00
Si1      0.32082    0.45279    0.85841   1.00
C6       0.41123    0.57538    0.78241   1.00
C6       0.40276    0.49598    0.75331   1.00
C6       0.36520    0.56253    0.71204   1.00
C6       0.27342    0.46693    0.87309   1.00
C6       0.32560    0.40198    0.86283   1.00
C6       0.35607    0.47477    0.88868   1.00
C6       0.39032    0.61194    0.80028   1.00
H2       0.42050    0.55791    0.80741   1.00
C6       0.44983    0.59147    0.76369   1.00
H2       0.39639    0.48358    0.78193   1.00
C6       0.38592    0.46634    0.72294   1.00
C6       0.44812    0.49336    0.74863   1.00
H2       0.34902    0.58831    0.72158   1.00
C6       0.39741    0.57772    0.68335   1.00
C6       0.33677    0.53849    0.68524   1.00
C6       0.26156    0.51071    0.86808   1.00
C6       0.23736    0.44225    0.85967   1.00
H2       0.27441    0.46212    0.90456   1.00
H2       0.30189    0.39051    0.84494   1.00
C6       0.36377    0.38378    0.84550   1.00
C6       0.32028    0.38393    0.90441   1.00
H2       0.38001    0.45375    0.88919   1.00
C6       0.37463    0.51336    0.87332   1.00
C6       0.34513    0.48244    0.93239   1.00
H2       0.36621    0.60346    0.81933   1.00
H2       0.37865    0.63090    0.77744   1.00
H2       0.41040    0.62917    0.81810   1.00
H2       0.47185    0.59608    0.78632   1.00
H2       0.46229    0.57178    0.74217   1.00
H2       0.44551    0.61964    0.74942   1.00
H2       0.39598    0.43672    0.72929   1.00
H2       0.35420    0.46532    0.72357   1.00
H2       0.39534    0.47352    0.69337   1.00
H2       0.46315    0.50862    0.77220   1.00
H2       0.45818    0.46308    0.74984   1.00
H2       0.45753    0.50550    0.72070   1.00
H2       0.41911    0.55514    0.67742   1.00
H2       0.38515    0.58708    0.65539   1.00
H2       0.41206    0.60332    0.69496   1.00
H2       0.35248    0.51902    0.66553   1.00
H2       0.31625    0.52068    0.70138   1.00
H2       0.31951    0.55828    0.66709   1.00
H2       0.25152    0.51688    0.83856   1.00
H2       0.23758    0.51809    0.88780   1.00
H2       0.28549    0.53048    0.87477   1.00
H2       0.21109    0.45125    0.87543   1.00
H2       0.23120    0.44574    0.82873   1.00
H2       0.24114    0.41122    0.86566   1.00
H2       0.36110    0.35202    0.84360   1.00
H2       0.36932    0.39435    0.81593   1.00
H2       0.38930    0.39035    0.86335   1.00
H2       0.29356    0.39416    0.91838   1.00
H2       0.31821    0.35212    0.90255   1.00
H2       0.34496    0.39085    0.92335   1.00
H2       0.35311    0.53656    0.87006   1.00
H2       0.39774    0.52381    0.89263   1.00
H2       0.38784    0.50834    0.84497   1.00
H2       0.37099    0.49044    0.94931   1.00
H2       0.32407    0.50622    0.93513   1.00
H2       0.33280    0.45657    0.94618   1.00
C4       -0.02084   0.25040    0.75302   1.00
C4       0.02088    0.24981    0.75259   1.00
C3       -0.04364   0.23589    0.78442   1.00
C3       0.04384    0.23150    0.78182   1.00
C3       -0.04123   0.26575    0.72009   1.00
C3       0.04114    0.26857    0.72140   1.00
C2       -0.10512   0.25087    0.75083   1.00
C2       0.10512    0.24913    0.74917   1.00
C3       -0.08462   0.23590    0.78329   1.00
C3       0.08481    0.23147    0.78038   1.00
C3       -0.08258   0.26617    0.71983   1.00
C3       0.08238    0.26676    0.71961   1.00
H1       -0.03115   0.22501    0.80910   1.00
H1       0.03148    0.21743    0.80490   1.00
C5       -0.02020   0.28074    0.68773   1.00
C5       0.02020    0.28872    0.69197   1.00
H1       -0.09955   0.22476    0.80675   1.00
H1       0.09990    0.21806    0.80251   1.00
H1       -0.09680   0.27826    0.69649   1.00
H1       0.09632    0.27816    0.69582   1.00
O3       -0.03961   0.28942    0.65360   1.00
O3       0.03901    0.31335    0.66615   1.00
Si1      -0.04247   0.25678    0.61900   1.00
Si1      0.04721    0.35841    0.67918   1.00
C6       -0.07538   0.28241    0.58877   1.00
C6       0.00402    0.25331    0.59724   1.00
C6       -0.06253   0.21204    0.63480   1.00
C6       0.03307    0.37309    0.72658   1.00
C6       0.09802    0.36283    0.67440   1.00
C6       0.02523    0.38868    0.64393   1.00
C6       -0.11194   0.30028    0.60968   1.00
H2       -0.05791   0.30741    0.57950   1.00
C6       -0.09147   0.26369    0.55017   1.00
H2       0.01642    0.28193    0.60361   1.00
C6       0.03366    0.22294    0.61408   1.00
C6       0.00664    0.24863    0.55188   1.00
H2       -0.08831   0.22158    0.65098   1.00
C6       -0.07772   0.18335    0.60259   1.00
C6       -0.03849   0.18524    0.66323   1.00
C6       -0.01071   0.36808    0.73844   1.00
C6       0.05775    0.35967    0.76264   1.00
H2       0.03788    0.40456    0.72559   1.00
H2       0.10949    0.34494    0.69811   1.00
C6       0.11622    0.34550    0.63623   1.00
C6       0.11607    0.40441    0.67972   1.00
H2       0.04625    0.38919    0.61999   1.00
C6       -0.01336   0.37332    0.62537   1.00
C6       0.01756    0.43239    0.65487   1.00
H2       -0.10346   0.31933    0.63379   1.00
H2       -0.13090   0.27744    0.62135   1.00
H2       -0.12917   0.31810    0.58960   1.00
H2       -0.09608   0.28632    0.52815   1.00
H2       -0.07178   0.24217    0.53771   1.00
H2       -0.11964   0.24942    0.55449   1.00
H2       0.06328    0.22929    0.60402   1.00
H2       0.03468    0.22357    0.64580   1.00
H2       0.02648    0.19337    0.60466   1.00
H2       -0.00862   0.27220    0.53685   1.00
H2       0.03692    0.24984    0.54182   1.00
H2       -0.00550   0.22070    0.54247   1.00
H2       -0.05514   0.17742    0.58089   1.00
H2       -0.08708   0.15539    0.61485   1.00
H2       -0.10332   0.19496    0.58794   1.00
H2       -0.01902   0.16553    0.64752   1.00
H2       -0.02068   0.20138    0.68375   1.00
H2       -0.05828   0.16709    0.68049   1.00
H2       -0.01688   0.33856    0.74848   1.00
H2       -0.01809   0.38780    0.76242   1.00
H2       -0.03048   0.37477    0.71451   1.00
H2       0.04875    0.37543    0.78891   1.00
H2       0.05426    0.32873    0.76880   1.00
H2       0.08878    0.36566    0.75886   1.00
H2       0.14798    0.34360    0.63890   1.00
H2       0.10565    0.31593    0.63068   1.00
H2       0.10965    0.36335    0.61070   1.00
H2       0.10584    0.41838    0.70644   1.00
H2       0.14788    0.40255    0.68179   1.00
H2       0.10915    0.42335    0.65504   1.00
H2       -0.03656   0.37006    0.64689   1.00
H2       -0.02381   0.39263    0.60226   1.00
H2       -0.00834   0.34497    0.61216   1.00
H2       0.00956    0.44931    0.62901   1.00
H2       -0.00622   0.43513    0.67593   1.00
H2       0.04343    0.44618    0.66720   1.00
C4       0.52084    0.25040    0.74698   1.00
C4       0.47912    0.24981    0.74741   1.00
C3       0.54364    0.23589    0.71558   1.00
C3       0.45616    0.23150    0.71818   1.00
C3       0.54123    0.26575    0.77991   1.00
C3       0.45886    0.26857    0.77860   1.00
C2       0.60512    0.25087    0.74917   1.00
C2       0.39488    0.24913    0.75083   1.00
C3       0.58462    0.23590    0.71671   1.00
C3       0.41519    0.23147    0.71962   1.00
C3       0.58258    0.26617    0.78017   1.00
C3       0.41762    0.26676    0.78039   1.00
H1       0.53115    0.22501    0.69090   1.00
H1       0.46852    0.21743    0.69510   1.00
C5       0.52020    0.28074    0.81227   1.00
C5       0.47980    0.28872    0.80803   1.00
H1       0.59955    0.22476    0.69325   1.00
H1       0.40010    0.21806    0.69749   1.00
H1       0.59680    0.27826    0.80351   1.00
H1       0.40368    0.27816    0.80418   1.00
O3       0.53961    0.28942    0.84640   1.00
O3       0.46099    0.31335    0.83385   1.00
Si1      0.54247    0.25678    0.88100   1.00
Si1      0.45279    0.35841    0.82082   1.00
C6       0.57538    0.28241    0.91123   1.00
C6       0.49598    0.25331    0.90276   1.00
C6       0.56253    0.21204    0.86520   1.00
C6       0.46693    0.37309    0.77342   1.00
C6       0.40198    0.36283    0.82560   1.00
C6       0.47477    0.38868    0.85607   1.00
C6       0.61194    0.30028    0.89032   1.00
H2       0.55791    0.30741    0.92050   1.00
C6       0.59147    0.26369    0.94983   1.00
H2       0.48358    0.28193    0.89639   1.00
C6       0.46634    0.22294    0.88592   1.00
C6       0.49336    0.24863    0.94812   1.00
H2       0.58831    0.22158    0.84902   1.00
C6       0.57772    0.18335    0.89741   1.00
C6       0.53849    0.18524    0.83677   1.00
C6       0.51071    0.36808    0.76156   1.00
C6       0.44225    0.35967    0.73736   1.00
H2       0.46212    0.40456    0.77441   1.00
H2       0.39051    0.34494    0.80189   1.00
C6       0.38378    0.34550    0.86377   1.00
C6       0.38393    0.40441    0.82028   1.00
H2       0.45375    0.38919    0.88001   1.00
C6       0.51336    0.37332    0.87463   1.00
C6       0.48244    0.43239    0.84513   1.00
H2       0.60346    0.31933    0.86621   1.00
H2       0.63090    0.27744    0.87865   1.00
H2       0.62917    0.31810    0.91040   1.00
H2       0.59608    0.28632    0.97185   1.00
H2       0.57178    0.24217    0.96229   1.00
H2       0.61964    0.24942    0.94551   1.00
H2       0.43672    0.22929    0.89598   1.00
H2       0.46532    0.22357    0.85420   1.00
H2       0.47352    0.19337    0.89534   1.00
H2       0.50862    0.27220    0.96315   1.00
H2       0.46308    0.24984    0.95818   1.00
H2       0.50550    0.22070    0.95753   1.00
H2       0.55514    0.17742    0.91911   1.00
H2       0.58708    0.15539    0.88515   1.00
H2       0.60332    0.19496    0.91206   1.00
H2       0.51902    0.16553    0.85248   1.00
H2       0.52068    0.20138    0.81625   1.00
H2       0.55828    0.16709    0.81951   1.00
H2       0.51688    0.33856    0.75152   1.00
H2       0.51809    0.38780    0.73758   1.00
H2       0.53048    0.37477    0.78549   1.00
H2       0.45125    0.37543    0.71109   1.00
H2       0.44574    0.32873    0.73120   1.00
H2       0.41122    0.36566    0.74114   1.00
H2       0.35202    0.34360    0.86110   1.00
H2       0.39435    0.31593    0.86932   1.00
H2       0.39035    0.36335    0.88930   1.00
H2       0.39416    0.41838    0.79356   1.00
H2       0.35212    0.40255    0.81821   1.00
H2       0.39085    0.42335    0.84496   1.00
H2       0.53656    0.37006    0.85311   1.00
H2       0.52381    0.39263    0.89774   1.00
H2       0.50834    0.34497    0.88784   1.00
H2       0.49044    0.44931    0.87099   1.00
H2       0.50622    0.43513    0.82407   1.00
H2       0.45657    0.44618    0.83280   1.00
C4       0.25302    -0.02084   0.75040   1.00
C4       0.25259    0.02088    0.74981   1.00
C3       0.28442    -0.04364   0.73589   1.00
C3       0.28182    0.04384    0.73150   1.00
C3       0.22009    -0.04123   0.76575   1.00
C3       0.22140    0.04114    0.76857   1.00
C2       0.25083    -0.10512   0.75087   1.00
C2       0.24917    0.10512    0.74913   1.00
C3       0.28329    -0.08462   0.73590   1.00
C3       0.28038    0.08481    0.73147   1.00
C3       0.21983    -0.08258   0.76617   1.00
C3       0.21961    0.08238    0.76676   1.00
H1       0.30910    -0.03115   0.72501   1.00
H1       0.30490    0.03148    0.71743   1.00
C5       0.18773    -0.02020   0.78074   1.00
C5       0.19197    0.02020    0.78872   1.00
H1       0.30675    -0.09955   0.72476   1.00
H1       0.30251    0.09990    0.71806   1.00
H1       0.19649    -0.09680   0.77826   1.00
H1       0.19582    0.09632    0.77816   1.00
O3       0.15360    -0.03961   0.78942   1.00
O3       0.16615    0.03901    0.81335   1.00
Si1      0.11900    -0.04247   0.75678   1.00
Si1      0.17918    0.04721    0.85841   1.00
C6       0.08877    -0.07538   0.78241   1.00
C6       0.09724    0.00402    0.75331   1.00
C6       0.13480    -0.06253   0.71204   1.00
C6       0.22658    0.03307    0.87309   1.00
C6       0.17440    0.09802    0.86283   1.00
C6       0.14393    0.02523    0.88868   1.00
C6       0.10968    -0.11194   0.80028   1.00
H2       0.07950    -0.05791   0.80741   1.00
C6       0.05017    -0.09147   0.76369   1.00
H2       0.10361    0.01642    0.78193   1.00
C6       0.11408    0.03366    0.72294   1.00
C6       0.05188    0.00664    0.74863   1.00
H2       0.15098    -0.08831   0.72158   1.00
C6       0.10259    -0.07772   0.68335   1.00
C6       0.16323    -0.03849   0.68524   1.00
C6       0.23844    -0.01071   0.86808   1.00
C6       0.26264    0.05775    0.85967   1.00
H2       0.22559    0.03788    0.90456   1.00
H2       0.19811    0.10949    0.84494   1.00
C6       0.13623    0.11622    0.84550   1.00
C6       0.17972    0.11607    0.90441   1.00
H2       0.11999    0.04625    0.88919   1.00
C6       0.12537    -0.01336   0.87332   1.00
C6       0.15487    0.01756    0.93239   1.00
H2       0.13379    -0.10346   0.81933   1.00
H2       0.12135    -0.13090   0.77744   1.00
H2       0.08960    -0.12917   0.81810   1.00
H2       0.02815    -0.09608   0.78632   1.00
H2       0.03771    -0.07178   0.74217   1.00
H2       0.05449    -0.11964   0.74942   1.00
H2       0.10402    0.06328    0.72929   1.00
H2       0.14580    0.03468    0.72357   1.00
H2       0.10466    0.02648    0.69337   1.00
H2       0.03685    -0.00862   0.77220   1.00
H2       0.04182    0.03692    0.74984   1.00
H2       0.04247    -0.00550   0.72070   1.00
H2       0.08089    -0.05514   0.67742   1.00
H2       0.11485    -0.08708   0.65539   1.00
H2       0.08794    -0.10332   0.69496   1.00
H2       0.14752    -0.01902   0.66553   1.00
H2       0.18375    -0.02068   0.70138   1.00
H2       0.18049    -0.05828   0.66709   1.00
H2       0.24848    -0.01688   0.83856   1.00
H2       0.26242    -0.01809   0.88780   1.00
H2       0.21451    -0.03048   0.87477   1.00
H2       0.28891    0.04875    0.87543   1.00
H2       0.26880    0.05426    0.82873   1.00
H2       0.25886    0.08878    0.86566   1.00
H2       0.13890    0.14798    0.84360   1.00
H2       0.13068    0.10565    0.81593   1.00
H2       0.11070    0.10965    0.86335   1.00
H2       0.20644    0.10584    0.91838   1.00
H2       0.18179    0.14788    0.90255   1.00
H2       0.15504    0.10915    0.92335   1.00
H2       0.14689    -0.03656   0.87006   1.00
H2       0.10226    -0.02381   0.89263   1.00
H2       0.11216    -0.00834   0.84497   1.00
H2       0.12901    0.00956    0.94931   1.00
H2       0.17593    -0.00622   0.93513   1.00
H2       0.16720    0.04343    0.94618   1.00
C4       0.25040    0.25302    0.47916   1.00
C4       0.24981    0.25259    0.52088   1.00
C3       0.23589    0.28442    0.45636   1.00
C3       0.23150    0.28182    0.54384   1.00
C3       0.26575    0.22009    0.45877   1.00
C3       0.26857    0.22140    0.54114   1.00
C2       0.25087    0.25083    0.39488   1.00
C2       0.24913    0.24917    0.60512   1.00
C3       0.23590    0.28329    0.41538   1.00
C3       0.23147    0.28038    0.58481   1.00
C3       0.26617    0.21983    0.41742   1.00
C3       0.26676    0.21961    0.58238   1.00
H1       0.22501    0.30910    0.46885   1.00
H1       0.21743    0.30490    0.53148   1.00
C5       0.28074    0.18773    0.47980   1.00
C5       0.28872    0.19197    0.52020   1.00
H1       0.22476    0.30675    0.40045   1.00
H1       0.21806    0.30251    0.59990   1.00
H1       0.27826    0.19649    0.40320   1.00
H1       0.27816    0.19582    0.59632   1.00
O3       0.28942    0.15360    0.46039   1.00
O3       0.31335    0.16615    0.53901   1.00
Si1      0.25678    0.11900    0.45753   1.00
Si1      0.35841    0.17918    0.54721   1.00
C6       0.28241    0.08877    0.42462   1.00
C6       0.25331    0.09724    0.50402   1.00
C6       0.21204    0.13480    0.43747   1.00
C6       0.37309    0.22658    0.53307   1.00
C6       0.36283    0.17440    0.59802   1.00
C6       0.38868    0.14393    0.52523   1.00
C6       0.30028    0.10968    0.38806   1.00
H2       0.30741    0.07950    0.44209   1.00
C6       0.26369    0.05017    0.40853   1.00
H2       0.28193    0.10361    0.51642   1.00
C6       0.22294    0.11408    0.53366   1.00
C6       0.24863    0.05188    0.50664   1.00
H2       0.22158    0.15098    0.41169   1.00
C6       0.18335    0.10259    0.42228   1.00
C6       0.18524    0.16323    0.46151   1.00
C6       0.36808    0.23844    0.48929   1.00
C6       0.35967    0.26264    0.55775   1.00
H2       0.40456    0.22559    0.53788   1.00
H2       0.34494    0.19811    0.60949   1.00
C6       0.34550    0.13623    0.61622   1.00
C6       0.40441    0.17972    0.61607   1.00
H2       0.38919    0.11999    0.54625   1.00
C6       0.37332    0.12537    0.48664   1.00
C6       0.43239    0.15487    0.51756   1.00
H2       0.31933    0.13379    0.39654   1.00
H2       0.27744    0.12135    0.36910   1.00
H2       0.31810    0.08960    0.37083   1.00
H2       0.28632    0.02815    0.40392   1.00
H2       0.24217    0.03771    0.42822   1.00
H2       0.24942    0.05449    0.38036   1.00
H2       0.22929    0.10402    0.56328   1.00
H2       0.22357    0.14580    0.53468   1.00
H2       0.19337    0.10466    0.52648   1.00
H2       0.27220    0.03685    0.49138   1.00
H2       0.24984    0.04182    0.53692   1.00
H2       0.22070    0.04247    0.49450   1.00
H2       0.17742    0.08089    0.44486   1.00
H2       0.15539    0.11485    0.41292   1.00
H2       0.19496    0.08794    0.39668   1.00
H2       0.16553    0.14752    0.48098   1.00
H2       0.20138    0.18375    0.47932   1.00
H2       0.16709    0.18049    0.44172   1.00
H2       0.33856    0.24848    0.48312   1.00
H2       0.38780    0.26242    0.48191   1.00
H2       0.37477    0.21451    0.46952   1.00
H2       0.37543    0.28891    0.54875   1.00
H2       0.32873    0.26880    0.55426   1.00
H2       0.36566    0.25886    0.58878   1.00
H2       0.34360    0.13890    0.64798   1.00
H2       0.31593    0.13068    0.60565   1.00
H2       0.36335    0.11070    0.60965   1.00
H2       0.41838    0.20644    0.60584   1.00
H2       0.40255    0.18179    0.64788   1.00
H2       0.42335    0.15504    0.60915   1.00
H2       0.37006    0.14689    0.46344   1.00
H2       0.39263    0.10226    0.47619   1.00
H2       0.34497    0.11216    0.49166   1.00
H2       0.44931    0.12901    0.50956   1.00
H2       0.43513    0.17593    0.49378   1.00
H2       0.44618    0.16720    0.54343   1.00
C4       0.25040    0.74698    0.52084   1.00
C4       0.24981    0.74741    0.47912   1.00
C3       0.23589    0.71558    0.54364   1.00
C3       0.23150    0.71818    0.45616   1.00
C3       0.26575    0.77991    0.54123   1.00
C3       0.26857    0.77860    0.45886   1.00
C2       0.25087    0.74917    0.60512   1.00
C2       0.24913    0.75083    0.39488   1.00
C3       0.23590    0.71671    0.58462   1.00
C3       0.23147    0.71962    0.41519   1.00
C3       0.26617    0.78017    0.58258   1.00
C3       0.26676    0.78039    0.41762   1.00
H1       0.22501    0.69090    0.53115   1.00
H1       0.21743    0.69510    0.46852   1.00
C5       0.28074    0.81227    0.52020   1.00
C5       0.28872    0.80803    0.47980   1.00
H1       0.22476    0.69325    0.59955   1.00
H1       0.21806    0.69749    0.40010   1.00
H1       0.27826    0.80351    0.59680   1.00
H1       0.27816    0.80418    0.40368   1.00
O3       0.28942    0.84640    0.53961   1.00
O3       0.31335    0.83385    0.46099   1.00
Si1      0.25678    0.88100    0.54247   1.00
Si1      0.35841    0.82082    0.45279   1.00
C6       0.28241    0.91123    0.57538   1.00
C6       0.25331    0.90276    0.49598   1.00
C6       0.21204    0.86520    0.56253   1.00
C6       0.37309    0.77342    0.46693   1.00
C6       0.36283    0.82560    0.40198   1.00
C6       0.38868    0.85607    0.47477   1.00
C6       0.30028    0.89032    0.61194   1.00
H2       0.30741    0.92050    0.55791   1.00
C6       0.26369    0.94983    0.59147   1.00
H2       0.28193    0.89639    0.48358   1.00
C6       0.22294    0.88592    0.46634   1.00
C6       0.24863    0.94812    0.49336   1.00
H2       0.22158    0.84902    0.58831   1.00
C6       0.18335    0.89741    0.57772   1.00
C6       0.18524    0.83677    0.53849   1.00
C6       0.36808    0.76156    0.51071   1.00
C6       0.35967    0.73736    0.44225   1.00
H2       0.40456    0.77441    0.46212   1.00
H2       0.34494    0.80189    0.39051   1.00
C6       0.34550    0.86377    0.38378   1.00
C6       0.40441    0.82028    0.38393   1.00
H2       0.38919    0.88001    0.45375   1.00
C6       0.37332    0.87463    0.51336   1.00
C6       0.43239    0.84513    0.48244   1.00
H2       0.31933    0.86621    0.60346   1.00
H2       0.27744    0.87865    0.63090   1.00
H2       0.31810    0.91040    0.62917   1.00
H2       0.28632    0.97185    0.59608   1.00
H2       0.24217    0.96229    0.57178   1.00
H2       0.24942    0.94551    0.61964   1.00
H2       0.22929    0.89598    0.43672   1.00
H2       0.22357    0.85420    0.46532   1.00
H2       0.19337    0.89534    0.47352   1.00
H2       0.27220    0.96315    0.50862   1.00
H2       0.24984    0.95818    0.46308   1.00
H2       0.22070    0.95753    0.50550   1.00
H2       0.17742    0.91911    0.55514   1.00
H2       0.15539    0.88515    0.58708   1.00
H2       0.19496    0.91206    0.60332   1.00
H2       0.16553    0.85248    0.51902   1.00
H2       0.20138    0.81625    0.52068   1.00
H2       0.16709    0.81951    0.55828   1.00
H2       0.33856    0.75152    0.51688   1.00
H2       0.38780    0.73758    0.51809   1.00
H2       0.37477    0.78549    0.53048   1.00
H2       0.37543    0.71109    0.45125   1.00
H2       0.32873    0.73120    0.44574   1.00
H2       0.36566    0.74114    0.41122   1.00
H2       0.34360    0.86110    0.35202   1.00
H2       0.31593    0.86932    0.39435   1.00
H2       0.36335    0.88930    0.39035   1.00
H2       0.41838    0.79356    0.39416   1.00
H2       0.40255    0.81821    0.35212   1.00
H2       0.42335    0.84496    0.39085   1.00
H2       0.37006    0.85311    0.53656   1.00
H2       0.39263    0.89774    0.52381   1.00
H2       0.34497    0.88784    0.50834   1.00
H2       0.44931    0.87099    0.49044   1.00
H2       0.43513    0.82407    0.50622   1.00
H2       0.44618    0.83280    0.45657   1.00
C4       0.24698    1.02084    0.25040   1.00
C4       0.24741    0.97912    0.24981   1.00
C3       0.21558    1.04364    0.23589   1.00
C3       0.21818    0.95616    0.23150   1.00
C3       0.27991    1.04123    0.26575   1.00
C3       0.27860    0.95886    0.26857   1.00
C2       0.24917    1.10512    0.25087   1.00
C2       0.25083    0.89488    0.24913   1.00
C3       0.21671    1.08462    0.23590   1.00
C3       0.21962    0.91519    0.23147   1.00
C3       0.28017    1.08258    0.26617   1.00
C3       0.28039    0.91762    0.26676   1.00
H1       0.19090    1.03115    0.22501   1.00
H1       0.19510    0.96852    0.21743   1.00
C5       0.31227    1.02020    0.28074   1.00
C5       0.30803    0.97980    0.28872   1.00
H1       0.19325    1.09955    0.22476   1.00
H1       0.19749    0.90010    0.21806   1.00
H1       0.30351    1.09680    0.27826   1.00
H1       0.30418    0.90368    0.27816   1.00
O3       0.34640    1.03961    0.28942   1.00
O3       0.33385    0.96099    0.31335   1.00
Si1      0.38100    1.04247    0.25678   1.00
Si1      0.32082    0.95279    0.35841   1.00
C6       0.41123    1.07538    0.28241   1.00
C6       0.40276    0.99598    0.25331   1.00
C6       0.36520    1.06253    0.21204   1.00
C6       0.27342    0.96693    0.37309   1.00
C6       0.32560    0.90198    0.36283   1.00
C6       0.35607    0.97477    0.38868   1.00
C6       0.39032    1.11194    0.30028   1.00
H2       0.42050    1.05791    0.30741   1.00
C6       0.44983    1.09147    0.26369   1.00
H2       0.39639    0.98358    0.28193   1.00
C6       0.38592    0.96634    0.22294   1.00
C6       0.44812    0.99336    0.24863   1.00
H2       0.34902    1.08831    0.22158   1.00
C6       0.39741    1.07772    0.18335   1.00
C6       0.33677    1.03849    0.18524   1.00
C6       0.26156    1.01071    0.36808   1.00
C6       0.23736    0.94225    0.35967   1.00
H2       0.27441    0.96212    0.40456   1.00
H2       0.30189    0.89051    0.34494   1.00
C6       0.36377    0.88378    0.34550   1.00
C6       0.32028    0.88393    0.40441   1.00
H2       0.38001    0.95375    0.38919   1.00
C6       0.37463    1.01336    0.37332   1.00
C6       0.34513    0.98244    0.43239   1.00
H2       0.36621    1.10346    0.31933   1.00
H2       0.37865    1.13090    0.27744   1.00
H2       0.41040    1.12917    0.31810   1.00
H2       0.47185    1.09608    0.28632   1.00
H2       0.46229    1.07178    0.24217   1.00
H2       0.44551    1.11964    0.24942   1.00
H2       0.39598    0.93672    0.22929   1.00
H2       0.35420    0.96532    0.22357   1.00
H2       0.39534    0.97352    0.19337   1.00
H2       0.46315    1.00862    0.27220   1.00
H2       0.45818    0.96308    0.24984   1.00
H2       0.45753    1.00550    0.22070   1.00
H2       0.41911    1.05514    0.17742   1.00
H2       0.38515    1.08708    0.15539   1.00
H2       0.41206    1.10332    0.19496   1.00
H2       0.35248    1.01902    0.16553   1.00
H2       0.31625    1.02068    0.20138   1.00
H2       0.31951    1.05828    0.16709   1.00
H2       0.25152    1.01688    0.33856   1.00
H2       0.23758    1.01809    0.38780   1.00
H2       0.28549    1.03048    0.37477   1.00
H2       0.21109    0.95125    0.37543   1.00
H2       0.23120    0.94574    0.32873   1.00
H2       0.24114    0.91122    0.36566   1.00
H2       0.36110    0.85202    0.34360   1.00
H2       0.36932    0.89435    0.31593   1.00
H2       0.38930    0.89035    0.36335   1.00
H2       0.29356    0.89416    0.41838   1.00
H2       0.31821    0.85212    0.40255   1.00
H2       0.34496    0.89085    0.42335   1.00
H2       0.35311    1.03656    0.37006   1.00
H2       0.39774    1.02381    0.39263   1.00
H2       0.38784    1.00834    0.34497   1.00
H2       0.37099    0.99044    0.44931   1.00
H2       0.32407    1.00622    0.43513   1.00
H2       0.33280    0.95657    0.44618   1.00
C4       -0.02084   0.75040    0.25302   1.00
C4       0.02088    0.74981    0.25259   1.00
C3       -0.04364   0.73589    0.28442   1.00
C3       0.04384    0.73150    0.28182   1.00
C3       -0.04123   0.76575    0.22009   1.00
C3       0.04114    0.76857    0.22140   1.00
C2       -0.10512   0.75087    0.25083   1.00
C2       0.10512    0.74913    0.24917   1.00
C3       -0.08462   0.73590    0.28329   1.00
C3       0.08481    0.73147    0.28038   1.00
C3       -0.08258   0.76617    0.21983   1.00
C3       0.08238    0.76676    0.21961   1.00
H1       -0.03115   0.72501    0.30910   1.00
H1       0.03148    0.71743    0.30490   1.00
C5       -0.02020   0.78074    0.18773   1.00
C5       0.02020    0.78872    0.19197   1.00
H1       -0.09955   0.72476    0.30675   1.00
H1       0.09990    0.71806    0.30251   1.00
H1       -0.09680   0.77826    0.19649   1.00
H1       0.09632    0.77816    0.19582   1.00
O3       -0.03961   0.78942    0.15360   1.00
O3       0.03901    0.81335    0.16615   1.00
Si1      -0.04247   0.75678    0.11900   1.00
Si1      0.04721    0.85841    0.17918   1.00
C6       -0.07538   0.78241    0.08877   1.00
C6       0.00402    0.75331    0.09724   1.00
C6       -0.06253   0.71204    0.13480   1.00
C6       0.03307    0.87309    0.22658   1.00
C6       0.09802    0.86283    0.17440   1.00
C6       0.02523    0.88868    0.14393   1.00
C6       -0.11194   0.80028    0.10968   1.00
H2       -0.05791   0.80741    0.07950   1.00
C6       -0.09147   0.76369    0.05017   1.00
H2       0.01642    0.78193    0.10361   1.00
C6       0.03366    0.72294    0.11408   1.00
C6       0.00664    0.74863    0.05188   1.00
H2       -0.08831   0.72158    0.15098   1.00
C6       -0.07772   0.68335    0.10259   1.00
C6       -0.03849   0.68524    0.16323   1.00
C6       -0.01071   0.86808    0.23844   1.00
C6       0.05775    0.85967    0.26264   1.00
H2       0.03788    0.90456    0.22559   1.00
H2       0.10949    0.84494    0.19811   1.00
C6       0.11622    0.84550    0.13623   1.00
C6       0.11607    0.90441    0.17972   1.00
H2       0.04625    0.88919    0.11999   1.00
C6       -0.01336   0.87332    0.12537   1.00
C6       0.01756    0.93239    0.15487   1.00
H2       -0.10346   0.81933    0.13379   1.00
H2       -0.13090   0.77744    0.12135   1.00
H2       -0.12917   0.81810    0.08960   1.00
H2       -0.09608   0.78632    0.02815   1.00
H2       -0.07178   0.74217    0.03771   1.00
H2       -0.11964   0.74942    0.05449   1.00
H2       0.06328    0.72929    0.10402   1.00
H2       0.03468    0.72357    0.14580   1.00
H2       0.02648    0.69337    0.10466   1.00
H2       -0.00862   0.77220    0.03685   1.00
H2       0.03692    0.74984    0.04182   1.00
H2       -0.00550   0.72070    0.04247   1.00
H2       -0.05514   0.67742    0.08089   1.00
H2       -0.08708   0.65539    0.11485   1.00
H2       -0.10332   0.69496    0.08794   1.00
H2       -0.01902   0.66553    0.14752   1.00
H2       -0.02068   0.70138    0.18375   1.00
H2       -0.05828   0.66709    0.18049   1.00
H2       -0.01688   0.83856    0.24848   1.00
H2       -0.01809   0.88780    0.26242   1.00
H2       -0.03048   0.87477    0.21451   1.00
H2       0.04875    0.87543    0.28891   1.00
H2       0.05426    0.82873    0.26880   1.00
H2       0.08878    0.86566    0.25886   1.00
H2       0.14798    0.84360    0.13890   1.00
H2       0.10565    0.81593    0.13068   1.00
H2       0.10965    0.86335    0.11070   1.00
H2       0.10584    0.91838    0.20644   1.00
H2       0.14788    0.90255    0.18179   1.00
H2       0.10915    0.92335    0.15504   1.00
H2       -0.03656   0.87006    0.14689   1.00
H2       -0.02381   0.89263    0.10226   1.00
H2       -0.00834   0.84497    0.11216   1.00
H2       0.00956    0.94931    0.12901   1.00
H2       -0.00622   0.93513    0.17593   1.00
H2       0.04343    0.94618    0.16720   1.00
C4       0.52084    0.75040    0.24698   1.00
C4       0.47912    0.74981    0.24741   1.00
C3       0.54364    0.73589    0.21558   1.00
C3       0.45616    0.73150    0.21818   1.00
C3       0.54123    0.76575    0.27991   1.00
C3       0.45886    0.76857    0.27860   1.00
C2       0.60512    0.75087    0.24917   1.00
C2       0.39488    0.74913    0.25083   1.00
C3       0.58462    0.73590    0.21671   1.00
C3       0.41519    0.73147    0.21962   1.00
C3       0.58258    0.76617    0.28017   1.00
C3       0.41762    0.76676    0.28039   1.00
H1       0.53115    0.72501    0.19090   1.00
H1       0.46852    0.71743    0.19510   1.00
C5       0.52020    0.78074    0.31227   1.00
C5       0.47980    0.78872    0.30803   1.00
H1       0.59955    0.72476    0.19325   1.00
H1       0.40010    0.71806    0.19749   1.00
H1       0.59680    0.77826    0.30351   1.00
H1       0.40368    0.77816    0.30418   1.00
O3       0.53961    0.78942    0.34640   1.00
O3       0.46099    0.81335    0.33385   1.00
Si1      0.54247    0.75678    0.38100   1.00
Si1      0.45279    0.85841    0.32082   1.00
C6       0.57538    0.78241    0.41123   1.00
C6       0.49598    0.75331    0.40276   1.00
C6       0.56253    0.71204    0.36520   1.00
C6       0.46693    0.87309    0.27342   1.00
C6       0.40198    0.86283    0.32560   1.00
C6       0.47477    0.88868    0.35607   1.00
C6       0.61194    0.80028    0.39032   1.00
H2       0.55791    0.80741    0.42050   1.00
C6       0.59147    0.76369    0.44983   1.00
H2       0.48358    0.78193    0.39639   1.00
C6       0.46634    0.72294    0.38592   1.00
C6       0.49336    0.74863    0.44812   1.00
H2       0.58831    0.72158    0.34902   1.00
C6       0.57772    0.68335    0.39741   1.00
C6       0.53849    0.68524    0.33677   1.00
C6       0.51071    0.86808    0.26156   1.00
C6       0.44225    0.85967    0.23736   1.00
H2       0.46212    0.90456    0.27441   1.00
H2       0.39051    0.84494    0.30189   1.00
C6       0.38378    0.84550    0.36377   1.00
C6       0.38393    0.90441    0.32028   1.00
H2       0.45375    0.88919    0.38001   1.00
C6       0.51336    0.87332    0.37463   1.00
C6       0.48244    0.93239    0.34513   1.00
H2       0.60346    0.81933    0.36621   1.00
H2       0.63090    0.77744    0.37865   1.00
H2       0.62917    0.81810    0.41040   1.00
H2       0.59608    0.78632    0.47185   1.00
H2       0.57178    0.74217    0.46229   1.00
H2       0.61964    0.74942    0.44551   1.00
H2       0.43672    0.72929    0.39598   1.00
H2       0.46532    0.72357    0.35420   1.00
H2       0.47352    0.69337    0.39534   1.00
H2       0.50862    0.77220    0.46315   1.00
H2       0.46308    0.74984    0.45818   1.00
H2       0.50550    0.72070    0.45753   1.00
H2       0.55514    0.67742    0.41911   1.00
H2       0.58708    0.65539    0.38515   1.00
H2       0.60332    0.69496    0.41206   1.00
H2       0.51902    0.66553    0.35248   1.00
H2       0.52068    0.70138    0.31625   1.00
H2       0.55828    0.66709    0.31951   1.00
H2       0.51688    0.83856    0.25152   1.00
H2       0.51809    0.88780    0.23758   1.00
H2       0.53048    0.87477    0.28549   1.00
H2       0.45125    0.87543    0.21109   1.00
H2       0.44574    0.82873    0.23120   1.00
H2       0.41122    0.86566    0.24114   1.00
H2       0.35202    0.84360    0.36110   1.00
H2       0.39435    0.81593    0.36932   1.00
H2       0.39035    0.86335    0.38930   1.00
H2       0.39416    0.91838    0.29356   1.00
H2       0.35212    0.90255    0.31821   1.00
H2       0.39085    0.92335    0.34496   1.00
H2       0.53656    0.87006    0.35311   1.00
H2       0.52381    0.89263    0.39774   1.00
H2       0.50834    0.84497    0.38784   1.00
H2       0.49044    0.94931    0.37099   1.00
H2       0.50622    0.93513    0.32407   1.00
H2       0.45657    0.94618    0.33280   1.00
C4       0.25302    0.47916    0.25040   1.00
C4       0.25259    0.52088    0.24981   1.00
C3       0.28442    0.45636    0.23589   1.00
C3       0.28182    0.54384    0.23150   1.00
C3       0.22009    0.45877    0.26575   1.00
C3       0.22140    0.54114    0.26857   1.00
C2       0.25083    0.39488    0.25087   1.00
C2       0.24917    0.60512    0.24913   1.00
C3       0.28329    0.41538    0.23590   1.00
C3       0.28038    0.58481    0.23147   1.00
C3       0.21983    0.41742    0.26617   1.00
C3       0.21961    0.58238    0.26676   1.00
H1       0.30910    0.46885    0.22501   1.00
H1       0.30490    0.53148    0.21743   1.00
C5       0.18773    0.47980    0.28074   1.00
C5       0.19197    0.52020    0.28872   1.00
H1       0.30675    0.40045    0.22476   1.00
H1       0.30251    0.59990    0.21806   1.00
H1       0.19649    0.40320    0.27826   1.00
H1       0.19582    0.59632    0.27816   1.00
O3       0.15360    0.46039    0.28942   1.00
O3       0.16615    0.53901    0.31335   1.00
Si1      0.11900    0.45753    0.25678   1.00
Si1      0.17918    0.54721    0.35841   1.00
C6       0.08877    0.42462    0.28241   1.00
C6       0.09724    0.50402    0.25331   1.00
C6       0.13480    0.43747    0.21204   1.00
C6       0.22658    0.53307    0.37309   1.00
C6       0.17440    0.59802    0.36283   1.00
C6       0.14393    0.52523    0.38868   1.00
C6       0.10968    0.38806    0.30028   1.00
H2       0.07950    0.44209    0.30741   1.00
C6       0.05017    0.40853    0.26369   1.00
H2       0.10361    0.51642    0.28193   1.00
C6       0.11408    0.53366    0.22294   1.00
C6       0.05188    0.50664    0.24863   1.00
H2       0.15098    0.41169    0.22158   1.00
C6       0.10259    0.42228    0.18335   1.00
C6       0.16323    0.46151    0.18524   1.00
C6       0.23844    0.48929    0.36808   1.00
C6       0.26264    0.55775    0.35967   1.00
H2       0.22559    0.53788    0.40456   1.00
H2       0.19811    0.60949    0.34494   1.00
C6       0.13623    0.61622    0.34550   1.00
C6       0.17972    0.61607    0.40441   1.00
H2       0.11999    0.54625    0.38919   1.00
C6       0.12537    0.48664    0.37332   1.00
C6       0.15487    0.51756    0.43239   1.00
H2       0.13379    0.39654    0.31933   1.00
H2       0.12135    0.36910    0.27744   1.00
H2       0.08960    0.37083    0.31810   1.00
H2       0.02815    0.40392    0.28632   1.00
H2       0.03771    0.42822    0.24217   1.00
H2       0.05449    0.38036    0.24942   1.00
H2       0.10402    0.56328    0.22929   1.00
H2       0.14580    0.53468    0.22357   1.00
H2       0.10466    0.52648    0.19337   1.00
H2       0.03685    0.49138    0.27220   1.00
H2       0.04182    0.53692    0.24984   1.00
H2       0.04247    0.49450    0.22070   1.00
H2       0.08089    0.44486    0.17742   1.00
H2       0.11485    0.41292    0.15539   1.00
H2       0.08794    0.39668    0.19496   1.00
H2       0.14752    0.48098    0.16553   1.00
H2       0.18375    0.47932    0.20138   1.00
H2       0.18049    0.44172    0.16709   1.00
H2       0.24848    0.48312    0.33856   1.00
H2       0.26242    0.48191    0.38780   1.00
H2       0.21451    0.46952    0.37477   1.00
H2       0.28891    0.54875    0.37543   1.00
H2       0.26880    0.55426    0.32873   1.00
H2       0.25886    0.58878    0.36566   1.00
H2       0.13890    0.64798    0.34360   1.00
H2       0.13068    0.60565    0.31593   1.00
H2       0.11070    0.60965    0.36335   1.00
H2       0.20644    0.60584    0.41838   1.00
H2       0.18179    0.64788    0.40255   1.00
H2       0.15504    0.60915    0.42335   1.00
H2       0.14689    0.46344    0.37006   1.00
H2       0.10226    0.47619    0.39263   1.00
H2       0.11216    0.49166    0.34497   1.00
H2       0.12901    0.50956    0.44931   1.00
H2       0.17593    0.49378    0.43513   1.00
H2       0.16720    0.54343    0.44618   1.00
C4       0.25040    0.75302    -0.02084   1.00
C4       0.24981    0.75259    0.02088   1.00
C3       0.23589    0.78442    -0.04364   1.00
C3       0.23150    0.78182    0.04384   1.00
C3       0.26575    0.72009    -0.04123   1.00
C3       0.26857    0.72140    0.04114   1.00
C2       0.25087    0.75083    -0.10512   1.00
C2       0.24913    0.74917    0.10512   1.00
C3       0.23590    0.78329    -0.08462   1.00
C3       0.23147    0.78038    0.08481   1.00
C3       0.26617    0.71983    -0.08258   1.00
C3       0.26676    0.71961    0.08238   1.00
H1       0.22501    0.80910    -0.03115   1.00
H1       0.21743    0.80490    0.03148   1.00
C5       0.28074    0.68773    -0.02020   1.00
C5       0.28872    0.69197    0.02020   1.00
H1       0.22476    0.80675    -0.09955   1.00
H1       0.21806    0.80251    0.09990   1.00
H1       0.27826    0.69649    -0.09680   1.00
H1       0.27816    0.69582    0.09632   1.00
O3       0.28942    0.65360    -0.03961   1.00
O3       0.31335    0.66615    0.03901   1.00
Si1      0.25678    0.61900    -0.04247   1.00
Si1      0.35841    0.67918    0.04721   1.00
C6       0.28241    0.58877    -0.07538   1.00
C6       0.25331    0.59724    0.00402   1.00
C6       0.21204    0.63480    -0.06253   1.00
C6       0.37309    0.72658    0.03307   1.00
C6       0.36283    0.67440    0.09802   1.00
C6       0.38868    0.64393    0.02523   1.00
C6       0.30028    0.60968    -0.11194   1.00
H2       0.30741    0.57950    -0.05791   1.00
C6       0.26369    0.55017    -0.09147   1.00
H2       0.28193    0.60361    0.01642   1.00
C6       0.22294    0.61408    0.03366   1.00
C6       0.24863    0.55188    0.00664   1.00
H2       0.22158    0.65098    -0.08831   1.00
C6       0.18335    0.60259    -0.07772   1.00
C6       0.18524    0.66323    -0.03849   1.00
C6       0.36808    0.73844    -0.01071   1.00
C6       0.35967    0.76264    0.05775   1.00
H2       0.40456    0.72559    0.03788   1.00
H2       0.34494    0.69811    0.10949   1.00
C6       0.34550    0.63623    0.11622   1.00
C6       0.40441    0.67972    0.11607   1.00
H2       0.38919    0.61999    0.04625   1.00
C6       0.37332    0.62537    -0.01336   1.00
C6       0.43239    0.65487    0.01756   1.00
H2       0.31933    0.63379    -0.10346   1.00
H2       0.27744    0.62135    -0.13090   1.00
H2       0.31810    0.58960    -0.12917   1.00
H2       0.28632    0.52815    -0.09608   1.00
H2       0.24217    0.53771    -0.07178   1.00
H2       0.24942    0.55449    -0.11964   1.00
H2       0.22929    0.60402    0.06328   1.00
H2       0.22357    0.64580    0.03468   1.00
H2       0.19337    0.60466    0.02648   1.00
H2       0.27220    0.53685    -0.00862   1.00
H2       0.24984    0.54182    0.03692   1.00
H2       0.22070    0.54247    -0.00550   1.00
H2       0.17742    0.58089    -0.05514   1.00
H2       0.15539    0.61485    -0.08708   1.00
H2       0.19496    0.58794    -0.10332   1.00
H2       0.16553    0.64752    -0.01902   1.00
H2       0.20138    0.68375    -0.02068   1.00
H2       0.16709    0.68049    -0.05828   1.00
H2       0.33856    0.74848    -0.01688   1.00
H2       0.38780    0.76242    -0.01809   1.00
H2       0.37477    0.71451    -0.03048   1.00
H2       0.37543    0.78891    0.04875   1.00
H2       0.32873    0.76880    0.05426   1.00
H2       0.36566    0.75886    0.08878   1.00
H2       0.34360    0.63890    0.14798   1.00
H2       0.31593    0.63068    0.10565   1.00
H2       0.36335    0.61070    0.10965   1.00
H2       0.41838    0.70644    0.10584   1.00
H2       0.40255    0.68179    0.14788   1.00
H2       0.42335    0.65504    0.10915   1.00
H2       0.37006    0.64689    -0.03656   1.00
H2       0.39263    0.60226    -0.02381   1.00
H2       0.34497    0.61216    -0.00834   1.00
H2       0.44931    0.62901    0.00956   1.00
H2       0.43513    0.67593    -0.00622   1.00
H2       0.44618    0.66720    0.04343   1.00
C4       0.75040    0.24698    0.52084   1.00
C4       0.74981    0.24741    0.47912   1.00
C3       0.73589    0.21558    0.54364   1.00
C3       0.73150    0.21818    0.45616   1.00
C3       0.76575    0.27991    0.54123   1.00
C3       0.76857    0.27860    0.45886   1.00
C2       0.75087    0.24917    0.60512   1.00
C2       0.74913    0.25083    0.39488   1.00
C3       0.73590    0.21671    0.58462   1.00
C3       0.73147    0.21962    0.41519   1.00
C3       0.76617    0.28017    0.58258   1.00
C3       0.76676    0.28039    0.41762   1.00
H1       0.72501    0.19090    0.53115   1.00
H1       0.71743    0.19510    0.46852   1.00
C5       0.78074    0.31227    0.52020   1.00
C5       0.78872    0.30803    0.47980   1.00
H1       0.72476    0.19325    0.59955   1.00
H1       0.71806    0.19749    0.40010   1.00
H1       0.77826    0.30351    0.59680   1.00
H1       0.77816    0.30418    0.40368   1.00
O3       0.78942    0.34640    0.53961   1.00
O3       0.81335    0.33385    0.46099   1.00
Si1      0.75678    0.38100    0.54247   1.00
Si1      0.85841    0.32082    0.45279   1.00
C6       0.78241    0.41123    0.57538   1.00
C6       0.75331    0.40276    0.49598   1.00
C6       0.71204    0.36520    0.56253   1.00
C6       0.87309    0.27342    0.46693   1.00
C6       0.86283    0.32560    0.40198   1.00
C6       0.88868    0.35607    0.47477   1.00
C6       0.80028    0.39032    0.61194   1.00
H2       0.80741    0.42050    0.55791   1.00
C6       0.76369    0.44983    0.59147   1.00
H2       0.78193    0.39639    0.48358   1.00
C6       0.72294    0.38592    0.46634   1.00
C6       0.74863    0.44812    0.49336   1.00
H2       0.72158    0.34902    0.58831   1.00
C6       0.68335    0.39741    0.57772   1.00
C6       0.68524    0.33677    0.53849   1.00
C6       0.86808    0.26156    0.51071   1.00
C6       0.85967    0.23736    0.44225   1.00
H2       0.90456    0.27441    0.46212   1.00
H2       0.84494    0.30189    0.39051   1.00
C6       0.84550    0.36377    0.38378   1.00
C6       0.90441    0.32028    0.38393   1.00
H2       0.88919    0.38001    0.45375   1.00
C6       0.87332    0.37463    0.51336   1.00
C6       0.93239    0.34513    0.48244   1.00
H2       0.81933    0.36621    0.60346   1.00
H2       0.77744    0.37865    0.63090   1.00
H2       0.81810    0.41040    0.62917   1.00
H2       0.78632    0.47185    0.59608   1.00
H2       0.74217    0.46229    0.57178   1.00
H2       0.74942    0.44551    0.61964   1.00
H2       0.72929    0.39598    0.43672   1.00
H2       0.72357    0.35420    0.46532   1.00
H2       0.69337    0.39534    0.47352   1.00
H2       0.77220    0.46315    0.50862   1.00
H2       0.74984    0.45818    0.46308   1.00
H2       0.72070    0.45753    0.50550   1.00
H2       0.67742    0.41911    0.55514   1.00
H2       0.65539    0.38515    0.58708   1.00
H2       0.69496    0.41206    0.60332   1.00
H2       0.66553    0.35248    0.51902   1.00
H2       0.70138    0.31625    0.52068   1.00
H2       0.66709    0.31951    0.55828   1.00
H2       0.83856    0.25152    0.51688   1.00
H2       0.88780    0.23758    0.51809   1.00
H2       0.87477    0.28549    0.53048   1.00
H2       0.87543    0.21109    0.45125   1.00
H2       0.82873    0.23120    0.44574   1.00
H2       0.86566    0.24114    0.41122   1.00
H2       0.84360    0.36110    0.35202   1.00
H2       0.81593    0.36932    0.39435   1.00
H2       0.86335    0.38930    0.39035   1.00
H2       0.91838    0.29356    0.39416   1.00
H2       0.90255    0.31821    0.35212   1.00
H2       0.92335    0.34496    0.39085   1.00
H2       0.87006    0.35311    0.53656   1.00
H2       0.89263    0.39774    0.52381   1.00
H2       0.84497    0.38784    0.50834   1.00
H2       0.94931    0.37099    0.49044   1.00
H2       0.93513    0.32407    0.50622   1.00
H2       0.94618    0.33280    0.45657   1.00
C4       0.74698    0.52084    0.25040   1.00
C4       0.74741    0.47912    0.24981   1.00
C3       0.71558    0.54364    0.23589   1.00
C3       0.71818    0.45616    0.23150   1.00
C3       0.77991    0.54123    0.26575   1.00
C3       0.77860    0.45886    0.26857   1.00
C2       0.74917    0.60512    0.25087   1.00
C2       0.75083    0.39488    0.24913   1.00
C3       0.71671    0.58462    0.23590   1.00
C3       0.71962    0.41519    0.23147   1.00
C3       0.78017    0.58258    0.26617   1.00
C3       0.78039    0.41762    0.26676   1.00
H1       0.69090    0.53115    0.22501   1.00
H1       0.69510    0.46852    0.21743   1.00
C5       0.81227    0.52020    0.28074   1.00
C5       0.80803    0.47980    0.28872   1.00
H1       0.69325    0.59955    0.22476   1.00
H1       0.69749    0.40010    0.21806   1.00
H1       0.80351    0.59680    0.27826   1.00
H1       0.80418    0.40368    0.27816   1.00
O3       0.84640    0.53961    0.28942   1.00
O3       0.83385    0.46099    0.31335   1.00
Si1      0.88100    0.54247    0.25678   1.00
Si1      0.82082    0.45279    0.35841   1.00
C6       0.91123    0.57538    0.28241   1.00
C6       0.90276    0.49598    0.25331   1.00
C6       0.86520    0.56253    0.21204   1.00
C6       0.77342    0.46693    0.37309   1.00
C6       0.82560    0.40198    0.36283   1.00
C6       0.85607    0.47477    0.38868   1.00
C6       0.89032    0.61194    0.30028   1.00
H2       0.92050    0.55791    0.30741   1.00
C6       0.94983    0.59147    0.26369   1.00
H2       0.89639    0.48358    0.28193   1.00
C6       0.88592    0.46634    0.22294   1.00
C6       0.94812    0.49336    0.24863   1.00
H2       0.84902    0.58831    0.22158   1.00
C6       0.89741    0.57772    0.18335   1.00
C6       0.83677    0.53849    0.18524   1.00
C6       0.76156    0.51071    0.36808   1.00
C6       0.73736    0.44225    0.35967   1.00
H2       0.77441    0.46212    0.40456   1.00
H2       0.80189    0.39051    0.34494   1.00
C6       0.86377    0.38378    0.34550   1.00
C6       0.82028    0.38393    0.40441   1.00
H2       0.88001    0.45375    0.38919   1.00
C6       0.87463    0.51336    0.37332   1.00
C6       0.84513    0.48244    0.43239   1.00
H2       0.86621    0.60346    0.31933   1.00
H2       0.87865    0.63090    0.27744   1.00
H2       0.91040    0.62917    0.31810   1.00
H2       0.97185    0.59608    0.28632   1.00
H2       0.96229    0.57178    0.24217   1.00
H2       0.94551    0.61964    0.24942   1.00
H2       0.89598    0.43672    0.22929   1.00
H2       0.85420    0.46532    0.22357   1.00
H2       0.89534    0.47352    0.19337   1.00
H2       0.96315    0.50862    0.27220   1.00
H2       0.95818    0.46308    0.24984   1.00
H2       0.95753    0.50550    0.22070   1.00
H2       0.91911    0.55514    0.17742   1.00
H2       0.88515    0.58708    0.15539   1.00
H2       0.91206    0.60332    0.19496   1.00
H2       0.85248    0.51902    0.16553   1.00
H2       0.81625    0.52068    0.20138   1.00
H2       0.81951    0.55828    0.16709   1.00
H2       0.75152    0.51688    0.33856   1.00
H2       0.73758    0.51809    0.38780   1.00
H2       0.78549    0.53048    0.37477   1.00
H2       0.71109    0.45125    0.37543   1.00
H2       0.73120    0.44574    0.32873   1.00
H2       0.74114    0.41122    0.36566   1.00
H2       0.86110    0.35202    0.34360   1.00
H2       0.86932    0.39435    0.31593   1.00
H2       0.88930    0.39035    0.36335   1.00
H2       0.79356    0.39416    0.41838   1.00
H2       0.81821    0.35212    0.40255   1.00
H2       0.84496    0.39085    0.42335   1.00
H2       0.85311    0.53656    0.37006   1.00
H2       0.89774    0.52381    0.39263   1.00
H2       0.88784    0.50834    0.34497   1.00
H2       0.87099    0.49044    0.44931   1.00
H2       0.82407    0.50622    0.43513   1.00
H2       0.83280    0.45657    0.44618   1.00
C4       0.47916    0.25040    0.25302   1.00
C4       0.52088    0.24981    0.25259   1.00
C3       0.45636    0.23589    0.28442   1.00
C3       0.54384    0.23150    0.28182   1.00
C3       0.45877    0.26575    0.22009   1.00
C3       0.54114    0.26857    0.22140   1.00
C2       0.39488    0.25087    0.25083   1.00
C2       0.60512    0.24913    0.24917   1.00
C3       0.41538    0.23590    0.28329   1.00
C3       0.58481    0.23147    0.28038   1.00
C3       0.41742    0.26617    0.21983   1.00
C3       0.58238    0.26676    0.21961   1.00
H1       0.46885    0.22501    0.30910   1.00
H1       0.53148    0.21743    0.30490   1.00
C5       0.47980    0.28074    0.18773   1.00
C5       0.52020    0.28872    0.19197   1.00
H1       0.40045    0.22476    0.30675   1.00
H1       0.59990    0.21806    0.30251   1.00
H1       0.40320    0.27826    0.19649   1.00
H1       0.59632    0.27816    0.19582   1.00
O3       0.46039    0.28942    0.15360   1.00
O3       0.53901    0.31335    0.16615   1.00
Si1      0.45753    0.25678    0.11900   1.00
Si1      0.54721    0.35841    0.17918   1.00
C6       0.42462    0.28241    0.08877   1.00
C6       0.50402    0.25331    0.09724   1.00
C6       0.43747    0.21204    0.13480   1.00
C6       0.53307    0.37309    0.22658   1.00
C6       0.59802    0.36283    0.17440   1.00
C6       0.52523    0.38868    0.14393   1.00
C6       0.38806    0.30028    0.10968   1.00
H2       0.44209    0.30741    0.07950   1.00
C6       0.40853    0.26369    0.05017   1.00
H2       0.51642    0.28193    0.10361   1.00
C6       0.53366    0.22294    0.11408   1.00
C6       0.50664    0.24863    0.05188   1.00
H2       0.41169    0.22158    0.15098   1.00
C6       0.42228    0.18335    0.10259   1.00
C6       0.46151    0.18524    0.16323   1.00
C6       0.48929    0.36808    0.23844   1.00
C6       0.55775    0.35967    0.26264   1.00
H2       0.53788    0.40456    0.22559   1.00
H2       0.60949    0.34494    0.19811   1.00
C6       0.61622    0.34550    0.13623   1.00
C6       0.61607    0.40441    0.17972   1.00
H2       0.54625    0.38919    0.11999   1.00
C6       0.48664    0.37332    0.12537   1.00
C6       0.51756    0.43239    0.15487   1.00
H2       0.39654    0.31933    0.13379   1.00
H2       0.36910    0.27744    0.12135   1.00
H2       0.37083    0.31810    0.08960   1.00
H2       0.40392    0.28632    0.02815   1.00
H2       0.42822    0.24217    0.03771   1.00
H2       0.38036    0.24942    0.05449   1.00
H2       0.56328    0.22929    0.10402   1.00
H2       0.53468    0.22357    0.14580   1.00
H2       0.52648    0.19337    0.10466   1.00
H2       0.49138    0.27220    0.03685   1.00
H2       0.53692    0.24984    0.04182   1.00
H2       0.49450    0.22070    0.04247   1.00
H2       0.44486    0.17742    0.08089   1.00
H2       0.41292    0.15539    0.11485   1.00
H2       0.39668    0.19496    0.08794   1.00
H2       0.48098    0.16553    0.14752   1.00
H2       0.47932    0.20138    0.18375   1.00
H2       0.44172    0.16709    0.18049   1.00
H2       0.48312    0.33856    0.24848   1.00
H2       0.48191    0.38780    0.26242   1.00
H2       0.46952    0.37477    0.21451   1.00
H2       0.54875    0.37543    0.28891   1.00
H2       0.55426    0.32873    0.26880   1.00
H2       0.58878    0.36566    0.25886   1.00
H2       0.64798    0.34360    0.13890   1.00
H2       0.60565    0.31593    0.13068   1.00
H2       0.60965    0.36335    0.11070   1.00
H2       0.60584    0.41838    0.20644   1.00
H2       0.64788    0.40255    0.18179   1.00
H2       0.60915    0.42335    0.15504   1.00
H2       0.46344    0.37006    0.14689   1.00
H2       0.47619    0.39263    0.10226   1.00
H2       0.49166    0.34497    0.11216   1.00
H2       0.50956    0.44931    0.12901   1.00
H2       0.49378    0.43513    0.17593   1.00
H2       0.54343    0.44618    0.16720   1.00
C4       1.02084    0.25040    0.24698   1.00
C4       0.97912    0.24981    0.24741   1.00
C3       1.04364    0.23589    0.21558   1.00
C3       0.95616    0.23150    0.21818   1.00
C3       1.04123    0.26575    0.27991   1.00
C3       0.95886    0.26857    0.27860   1.00
C2       1.10512    0.25087    0.24917   1.00
C2       0.89488    0.24913    0.25083   1.00
C3       1.08462    0.23590    0.21671   1.00
C3       0.91519    0.23147    0.21962   1.00
C3       1.08258    0.26617    0.28017   1.00
C3       0.91762    0.26676    0.28039   1.00
H1       1.03115    0.22501    0.19090   1.00
H1       0.96852    0.21743    0.19510   1.00
C5       1.02020    0.28074    0.31227   1.00
C5       0.97980    0.28872    0.30803   1.00
H1       1.09955    0.22476    0.19325   1.00
H1       0.90010    0.21806    0.19749   1.00
H1       1.09680    0.27826    0.30351   1.00
H1       0.90368    0.27816    0.30418   1.00
O3       1.03961    0.28942    0.34640   1.00
O3       0.96099    0.31335    0.33385   1.00
Si1      1.04247    0.25678    0.38100   1.00
Si1      0.95279    0.35841    0.32082   1.00
C6       1.07538    0.28241    0.41123   1.00
C6       0.99598    0.25331    0.40276   1.00
C6       1.06253    0.21204    0.36520   1.00
C6       0.96693    0.37309    0.27342   1.00
C6       0.90198    0.36283    0.32560   1.00
C6       0.97477    0.38868    0.35607   1.00
C6       1.11194    0.30028    0.39032   1.00
H2       1.05791    0.30741    0.42050   1.00
C6       1.09147    0.26369    0.44983   1.00
H2       0.98358    0.28193    0.39639   1.00
C6       0.96634    0.22294    0.38592   1.00
C6       0.99336    0.24863    0.44812   1.00
H2       1.08831    0.22158    0.34902   1.00
C6       1.07772    0.18335    0.39741   1.00
C6       1.03849    0.18524    0.33677   1.00
C6       1.01071    0.36808    0.26156   1.00
C6       0.94225    0.35967    0.23736   1.00
H2       0.96212    0.40456    0.27441   1.00
H2       0.89051    0.34494    0.30189   1.00
C6       0.88378    0.34550    0.36377   1.00
C6       0.88393    0.40441    0.32028   1.00
H2       0.95375    0.38919    0.38001   1.00
C6       1.01336    0.37332    0.37463   1.00
C6       0.98244    0.43239    0.34513   1.00
H2       1.10346    0.31933    0.36621   1.00
H2       1.13090    0.27744    0.37865   1.00
H2       1.12917    0.31810    0.41040   1.00
H2       1.09608    0.28632    0.47185   1.00
H2       1.07178    0.24217    0.46229   1.00
H2       1.11964    0.24942    0.44551   1.00
H2       0.93672    0.22929    0.39598   1.00
H2       0.96532    0.22357    0.35420   1.00
H2       0.97352    0.19337    0.39534   1.00
H2       1.00862    0.27220    0.46315   1.00
H2       0.96308    0.24984    0.45818   1.00
H2       1.00550    0.22070    0.45753   1.00
H2       1.05514    0.17742    0.41911   1.00
H2       1.08708    0.15539    0.38515   1.00
H2       1.10332    0.19496    0.41206   1.00
H2       1.01902    0.16553    0.35248   1.00
H2       1.02068    0.20138    0.31625   1.00
H2       1.05828    0.16709    0.31951   1.00
H2       1.01688    0.33856    0.25152   1.00
H2       1.01809    0.38780    0.23758   1.00
H2       1.03048    0.37477    0.28549   1.00
H2       0.95125    0.37543    0.21109   1.00
H2       0.94574    0.32873    0.23120   1.00
H2       0.91122    0.36566    0.24114   1.00
H2       0.85202    0.34360    0.36110   1.00
H2       0.89435    0.31593    0.36932   1.00
H2       0.89035    0.36335    0.38930   1.00
H2       0.89416    0.41838    0.29356   1.00
H2       0.85212    0.40255    0.31821   1.00
H2       0.89085    0.42335    0.34496   1.00
H2       1.03656    0.37006    0.35311   1.00
H2       1.02381    0.39263    0.39774   1.00
H2       1.00834    0.34497    0.38784   1.00
H2       0.99044    0.44931    0.37099   1.00
H2       1.00622    0.43513    0.32407   1.00
H2       0.95657    0.44618    0.33280   1.00
C4       0.75302    -0.02084   0.25040   1.00
C4       0.75259    0.02088    0.24981   1.00
C3       0.78442    -0.04364   0.23589   1.00
C3       0.78182    0.04384    0.23150   1.00
C3       0.72009    -0.04123   0.26575   1.00
C3       0.72140    0.04114    0.26857   1.00
C2       0.75083    -0.10512   0.25087   1.00
C2       0.74917    0.10512    0.24913   1.00
C3       0.78329    -0.08462   0.23590   1.00
C3       0.78038    0.08481    0.23147   1.00
C3       0.71983    -0.08258   0.26617   1.00
C3       0.71961    0.08238    0.26676   1.00
H1       0.80910    -0.03115   0.22501   1.00
H1       0.80490    0.03148    0.21743   1.00
C5       0.68773    -0.02020   0.28074   1.00
C5       0.69197    0.02020    0.28872   1.00
H1       0.80675    -0.09955   0.22476   1.00
H1       0.80251    0.09990    0.21806   1.00
H1       0.69649    -0.09680   0.27826   1.00
H1       0.69582    0.09632    0.27816   1.00
O3       0.65360    -0.03961   0.28942   1.00
O3       0.66615    0.03901    0.31335   1.00
Si1      0.61900    -0.04247   0.25678   1.00
Si1      0.67918    0.04721    0.35841   1.00
C6       0.58877    -0.07538   0.28241   1.00
C6       0.59724    0.00402    0.25331   1.00
C6       0.63480    -0.06253   0.21204   1.00
C6       0.72658    0.03307    0.37309   1.00
C6       0.67440    0.09802    0.36283   1.00
C6       0.64393    0.02523    0.38868   1.00
C6       0.60968    -0.11194   0.30028   1.00
H2       0.57950    -0.05791   0.30741   1.00
C6       0.55017    -0.09147   0.26369   1.00
H2       0.60361    0.01642    0.28193   1.00
C6       0.61408    0.03366    0.22294   1.00
C6       0.55188    0.00664    0.24863   1.00
H2       0.65098    -0.08831   0.22158   1.00
C6       0.60259    -0.07772   0.18335   1.00
C6       0.66323    -0.03849   0.18524   1.00
C6       0.73844    -0.01071   0.36808   1.00
C6       0.76264    0.05775    0.35967   1.00
H2       0.72559    0.03788    0.40456   1.00
H2       0.69811    0.10949    0.34494   1.00
C6       0.63623    0.11622    0.34550   1.00
C6       0.67972    0.11607    0.40441   1.00
H2       0.61999    0.04625    0.38919   1.00
C6       0.62537    -0.01336   0.37332   1.00
C6       0.65487    0.01756    0.43239   1.00
H2       0.63379    -0.10346   0.31933   1.00
H2       0.62135    -0.13090   0.27744   1.00
H2       0.58960    -0.12917   0.31810   1.00
H2       0.52815    -0.09608   0.28632   1.00
H2       0.53771    -0.07178   0.24217   1.00
H2       0.55449    -0.11964   0.24942   1.00
H2       0.60402    0.06328    0.22929   1.00
H2       0.64580    0.03468    0.22357   1.00
H2       0.60466    0.02648    0.19337   1.00
H2       0.53685    -0.00862   0.27220   1.00
H2       0.54182    0.03692    0.24984   1.00
H2       0.54247    -0.00550   0.22070   1.00
H2       0.58089    -0.05514   0.17742   1.00
H2       0.61485    -0.08708   0.15539   1.00
H2       0.58794    -0.10332   0.19496   1.00
H2       0.64752    -0.01902   0.16553   1.00
H2       0.68375    -0.02068   0.20138   1.00
H2       0.68049    -0.05828   0.16709   1.00
H2       0.74848    -0.01688   0.33856   1.00
H2       0.76242    -0.01809   0.38780   1.00
H2       0.71451    -0.03048   0.37477   1.00
H2       0.78891    0.04875    0.37543   1.00
H2       0.76880    0.05426    0.32873   1.00
H2       0.75886    0.08878    0.36566   1.00
H2       0.63890    0.14798    0.34360   1.00
H2       0.63068    0.10565    0.31593   1.00
H2       0.61070    0.10965    0.36335   1.00
H2       0.70644    0.10584    0.41838   1.00
H2       0.68179    0.14788    0.40255   1.00
H2       0.65504    0.10915    0.42335   1.00
H2       0.64689    -0.03656   0.37006   1.00
H2       0.60226    -0.02381   0.39263   1.00
H2       0.61216    -0.00834   0.34497   1.00
H2       0.62901    0.00956    0.44931   1.00
H2       0.67593    -0.00622   0.43513   1.00
H2       0.66720    0.04343    0.44618   1.00
C4       0.75040    0.25302    -0.02084   1.00
C4       0.74981    0.25259    0.02088   1.00
C3       0.73589    0.28442    -0.04364   1.00
C3       0.73150    0.28182    0.04384   1.00
C3       0.76575    0.22009    -0.04123   1.00
C3       0.76857    0.22140    0.04114   1.00
C2       0.75087    0.25083    -0.10512   1.00
C2       0.74913    0.24917    0.10512   1.00
C3       0.73590    0.28329    -0.08462   1.00
C3       0.73147    0.28038    0.08481   1.00
C3       0.76617    0.21983    -0.08258   1.00
C3       0.76676    0.21961    0.08238   1.00
H1       0.72501    0.30910    -0.03115   1.00
H1       0.71743    0.30490    0.03148   1.00
C5       0.78074    0.18773    -0.02020   1.00
C5       0.78872    0.19197    0.02020   1.00
H1       0.72476    0.30675    -0.09955   1.00
H1       0.71806    0.30251    0.09990   1.00
H1       0.77826    0.19649    -0.09680   1.00
H1       0.77816    0.19582    0.09632   1.00
O3       0.78942    0.15360    -0.03961   1.00
O3       0.81335    0.16615    0.03901   1.00
Si1      0.75678    0.11900    -0.04247   1.00
Si1      0.85841    0.17918    0.04721   1.00
C6       0.78241    0.08877    -0.07538   1.00
C6       0.75331    0.09724    0.00402   1.00
C6       0.71204    0.13480    -0.06253   1.00
C6       0.87309    0.22658    0.03307   1.00
C6       0.86283    0.17440    0.09802   1.00
C6       0.88868    0.14393    0.02523   1.00
C6       0.80028    0.10968    -0.11194   1.00
H2       0.80741    0.07950    -0.05791   1.00
C6       0.76369    0.05017    -0.09147   1.00
H2       0.78193    0.10361    0.01642   1.00
C6       0.72294    0.11408    0.03366   1.00
C6       0.74863    0.05188    0.00664   1.00
H2       0.72158    0.15098    -0.08831   1.00
C6       0.68335    0.10259    -0.07772   1.00
C6       0.68524    0.16323    -0.03849   1.00
C6       0.86808    0.23844    -0.01071   1.00
C6       0.85967    0.26264    0.05775   1.00
H2       0.90456    0.22559    0.03788   1.00
H2       0.84494    0.19811    0.10949   1.00
C6       0.84550    0.13623    0.11622   1.00
C6       0.90441    0.17972    0.11607   1.00
H2       0.88919    0.11999    0.04625   1.00
C6       0.87332    0.12537    -0.01336   1.00
C6       0.93239    0.15487    0.01756   1.00
H2       0.81933    0.13379    -0.10346   1.00
H2       0.77744    0.12135    -0.13090   1.00
H2       0.81810    0.08960    -0.12917   1.00
H2       0.78632    0.02815    -0.09608   1.00
H2       0.74217    0.03771    -0.07178   1.00
H2       0.74942    0.05449    -0.11964   1.00
H2       0.72929    0.10402    0.06328   1.00
H2       0.72357    0.14580    0.03468   1.00
H2       0.69337    0.10466    0.02648   1.00
H2       0.77220    0.03685    -0.00862   1.00
H2       0.74984    0.04182    0.03692   1.00
H2       0.72070    0.04247    -0.00550   1.00
H2       0.67742    0.08089    -0.05514   1.00
H2       0.65539    0.11485    -0.08708   1.00
H2       0.69496    0.08794    -0.10332   1.00
H2       0.66553    0.14752    -0.01902   1.00
H2       0.70138    0.18375    -0.02068   1.00
H2       0.66709    0.18049    -0.05828   1.00
H2       0.83856    0.24848    -0.01688   1.00
H2       0.88780    0.26242    -0.01809   1.00
H2       0.87477    0.21451    -0.03048   1.00
H2       0.87543    0.28891    0.04875   1.00
H2       0.82873    0.26880    0.05426   1.00
H2       0.86566    0.25886    0.08878   1.00
H2       0.84360    0.13890    0.14798   1.00
H2       0.81593    0.13068    0.10565   1.00
H2       0.86335    0.11070    0.10965   1.00
H2       0.91838    0.20644    0.10584   1.00
H2       0.90255    0.18179    0.14788   1.00
H2       0.92335    0.15504    0.10915   1.00
H2       0.87006    0.14689    -0.03656   1.00
H2       0.89263    0.10226    -0.02381   1.00
H2       0.84497    0.11216    -0.00834   1.00
H2       0.94931    0.12901    0.00956   1.00
H2       0.93513    0.17593    -0.00622   1.00
H2       0.94618    0.16720    0.04343   1.00
C4       1.00040    0.99698    1.27084   1.00
C4       0.99981    0.99741    1.22912   1.00
C3       0.98589    0.96558    1.29364   1.00
C3       0.98150    0.96818    1.20616   1.00
C3       1.01575    1.02991    1.29123   1.00
C3       1.01857    1.02860    1.20886   1.00
C2       1.00087    0.99917    1.35512   1.00
C2       0.99913    1.00083    1.14488   1.00
C3       0.98590    0.96671    1.33462   1.00
C3       0.98147    0.96962    1.16519   1.00
C3       1.01617    1.03017    1.33258   1.00
C3       1.01676    1.03039    1.16762   1.00
H1       0.97501    0.94090    1.28115   1.00
H1       0.96743    0.94510    1.21852   1.00
C5       1.03074    1.06227    1.27020   1.00
C5       1.03872    1.05803    1.22980   1.00
H1       0.97476    0.94325    1.34955   1.00
H1       0.96806    0.94749    1.15010   1.00
H1       1.02826    1.05351    1.34680   1.00
H1       1.02816    1.05418    1.15368   1.00
O3       1.03942    1.09640    1.28961   1.00
O3       1.06335    1.08385    1.21099   1.00
Si1      1.00678    1.13100    1.29247   1.00
Si1      1.10841    1.07082    1.20279   1.00
C6       1.03241    1.16123    1.32538   1.00
C6       1.00331    1.15276    1.24598   1.00
C6       0.96204    1.11520    1.31253   1.00
C6       1.12309    1.02342    1.21693   1.00
C6       1.11283    1.07560    1.15198   1.00
C6       1.13868    1.10607    1.22477   1.00
C6       1.05028    1.14032    1.36194   1.00
H2       1.05741    1.17050    1.30791   1.00
C6       1.01369    1.19983    1.34147   1.00
H2       1.03193    1.14639    1.23358   1.00
C6       0.97294    1.13592    1.21634   1.00
C6       0.99863    1.19812    1.24336   1.00
H2       0.97158    1.09902    1.33831   1.00
C6       0.93335    1.14741    1.32772   1.00
C6       0.93524    1.08677    1.28849   1.00
C6       1.11808    1.01156    1.26071   1.00
C6       1.10967    0.98736    1.19225   1.00
H2       1.15456    1.02441    1.21212   1.00
H2       1.09494    1.05189    1.14051   1.00
C6       1.09550    1.11377    1.13378   1.00
C6       1.15441    1.07028    1.13393   1.00
H2       1.13919    1.13001    1.20375   1.00
C6       1.12332    1.12463    1.26336   1.00
C6       1.18239    1.09513    1.23244   1.00
H2       1.06933    1.11621    1.35346   1.00
H2       1.02744    1.12865    1.38090   1.00
H2       1.06810    1.16040    1.37917   1.00
H2       1.03632    1.22185    1.34608   1.00
H2       0.99217    1.21229    1.32178   1.00
H2       0.99942    1.19551    1.36964   1.00
H2       0.97929    1.14598    1.18672   1.00
H2       0.97357    1.10420    1.21532   1.00
H2       0.94337    1.14534    1.22352   1.00
H2       1.02220    1.21315    1.25862   1.00
H2       0.99984    1.20818    1.21308   1.00
H2       0.97070    1.20753    1.25550   1.00
H2       0.92742    1.16911    1.30514   1.00
H2       0.90539    1.13515    1.33708   1.00
H2       0.94496    1.16206    1.35332   1.00
H2       0.91553    1.10248    1.26902   1.00
H2       0.95138    1.06625    1.27068   1.00
H2       0.91709    1.06951    1.30828   1.00
H2       1.08856    1.00152    1.26688   1.00
H2       1.13780    0.98758    1.26809   1.00
H2       1.12477    1.03549    1.28048   1.00
H2       1.12543    0.96109    1.20125   1.00
H2       1.07873    0.98120    1.19574   1.00
H2       1.11566    0.99114    1.16122   1.00
H2       1.09360    1.11110    1.10202   1.00
H2       1.06593    1.11932    1.14435   1.00
H2       1.11335    1.13930    1.14035   1.00
H2       1.16838    1.04356    1.14416   1.00
H2       1.15255    1.06821    1.10212   1.00
H2       1.17335    1.09496    1.14085   1.00
H2       1.12006    1.10311    1.28656   1.00
H2       1.14263    1.14774    1.27381   1.00
H2       1.09497    1.13784    1.25834   1.00
H2       1.19931    1.12099    1.24044   1.00
H2       1.18513    1.07407    1.25622   1.00
H2       1.19618    1.08280    1.20657   1.00
C4       0.99698    1.27084    1.00040   1.00
C4       0.99741    1.22912    0.99981   1.00
C3       0.96558    1.29364    0.98589   1.00
C3       0.96818    1.20616    0.98150   1.00
C3       1.02991    1.29123    1.01575   1.00
C3       1.02860    1.20886    1.01857   1.00
C2       0.99917    1.35512    1.00087   1.00
C2       1.00083    1.14488    0.99913   1.00
C3       0.96671    1.33462    0.98590   1.00
C3       0.96962    1.16519    0.98147   1.00
C3       1.03017    1.33258    1.01617   1.00
C3       1.03039    1.16762    1.01676   1.00
H1       0.94090    1.28115    0.97501   1.00
H1       0.94510    1.21852    0.96743   1.00
C5       1.06227    1.27020    1.03074   1.00
C5       1.05803    1.22980    1.03872   1.00
H1       0.94325    1.34955    0.97476   1.00
H1       0.94749    1.15010    0.96806   1.00
H1       1.05351    1.34680    1.02826   1.00
H1       1.05418    1.15368    1.02816   1.00
O3       1.09640    1.28961    1.03942   1.00
O3       1.08385    1.21099    1.06335   1.00
Si1      1.13100    1.29247    1.00678   1.00
Si1      1.07082    1.20279    1.10841   1.00
C6       1.16123    1.32538    1.03241   1.00
C6       1.15276    1.24598    1.00331   1.00
C6       1.11520    1.31253    0.96204   1.00
C6       1.02342    1.21693    1.12309   1.00
C6       1.07560    1.15198    1.11283   1.00
C6       1.10607    1.22477    1.13868   1.00
C6       1.14032    1.36194    1.05028   1.00
H2       1.17050    1.30791    1.05741   1.00
C6       1.19983    1.34147    1.01369   1.00
H2       1.14639    1.23358    1.03193   1.00
C6       1.13592    1.21634    0.97294   1.00
C6       1.19812    1.24336    0.99863   1.00
H2       1.09902    1.33831    0.97158   1.00
C6       1.14741    1.32772    0.93335   1.00
C6       1.08677    1.28849    0.93524   1.00
C6       1.01156    1.26071    1.11808   1.00
C6       0.98736    1.19225    1.10967   1.00
H2       1.02441    1.21212    1.15456   1.00
H2       1.05189    1.14051    1.09494   1.00
C6       1.11377    1.13378    1.09550   1.00
C6       1.07028    1.13393    1.15441   1.00
H2       1.13001    1.20375    1.13919   1.00
C6       1.12463    1.26336    1.12332   1.00
C6       1.09513    1.23244    1.18239   1.00
H2       1.11621    1.35346    1.06933   1.00
H2       1.12865    1.38090    1.02744   1.00
H2       1.16040    1.37917    1.06810   1.00
H2       1.22185    1.34608    1.03632   1.00
H2       1.21229    1.32178    0.99217   1.00
H2       1.19551    1.36964    0.99942   1.00
H2       1.14598    1.18672    0.97929   1.00
H2       1.10420    1.21532    0.97357   1.00
H2       1.14534    1.22352    0.94337   1.00
H2       1.21315    1.25862    1.02220   1.00
H2       1.20818    1.21308    0.99984   1.00
H2       1.20753    1.25550    0.97070   1.00
H2       1.16911    1.30514    0.92742   1.00
H2       1.13515    1.33708    0.90539   1.00
H2       1.16206    1.35332    0.94496   1.00
H2       1.10248    1.26902    0.91553   1.00
H2       1.06625    1.27068    0.95138   1.00
H2       1.06951    1.30828    0.91709   1.00
H2       1.00152    1.26688    1.08856   1.00
H2       0.98758    1.26809    1.13780   1.00
H2       1.03549    1.28048    1.12477   1.00
H2       0.96109    1.20125    1.12543   1.00
H2       0.98120    1.19574    1.07873   1.00
H2       0.99114    1.16122    1.11566   1.00
H2       1.11110    1.10202    1.09360   1.00
H2       1.11932    1.14435    1.06593   1.00
H2       1.13930    1.14035    1.11335   1.00
H2       1.04356    1.14416    1.16838   1.00
H2       1.06821    1.10212    1.15255   1.00
H2       1.09496    1.14085    1.17335   1.00
H2       1.10311    1.28656    1.12006   1.00
H2       1.14774    1.27381    1.14263   1.00
H2       1.13784    1.25834    1.09497   1.00
H2       1.12099    1.24044    1.19931   1.00
H2       1.07407    1.25622    1.18513   1.00
H2       1.08280    1.20657    1.19618   1.00
C4       0.72916    1.00040    1.00302   1.00
C4       0.77088    0.99981    1.00259   1.00
C3       0.70636    0.98589    1.03442   1.00
C3       0.79384    0.98150    1.03182   1.00
C3       0.70877    1.01575    0.97009   1.00
C3       0.79114    1.01857    0.97140   1.00
C2       0.64488    1.00087    1.00083   1.00
C2       0.85512    0.99913    0.99917   1.00
C3       0.66538    0.98590    1.03329   1.00
C3       0.83481    0.98147    1.03038   1.00
C3       0.66742    1.01617    0.96983   1.00
C3       0.83238    1.01676    0.96961   1.00
H1       0.71885    0.97501    1.05910   1.00
H1       0.78148    0.96743    1.05490   1.00
C5       0.72980    1.03074    0.93773   1.00
C5       0.77020    1.03872    0.94197   1.00
H1       0.65045    0.97476    1.05675   1.00
H1       0.84990    0.96806    1.05251   1.00
H1       0.65320    1.02826    0.94649   1.00
H1       0.84632    1.02816    0.94582   1.00
O3       0.71039    1.03942    0.90360   1.00
O3       0.78901    1.06335    0.91615   1.00
Si1      0.70753    1.00678    0.86900   1.00
Si1      0.79721    1.10841    0.92918   1.00
C6       0.67462    1.03241    0.83877   1.00
C6       0.75402    1.00331    0.84724   1.00
C6       0.68747    0.96204    0.88480   1.00
C6       0.78307    1.12309    0.97658   1.00
C6       0.84802    1.11283    0.92440   1.00
C6       0.77523    1.13868    0.89393   1.00
C6       0.63806    1.05028    0.85968   1.00
H2       0.69209    1.05741    0.82950   1.00
C6       0.65853    1.01369    0.80017   1.00
H2       0.76642    1.03193    0.85361   1.00
C6       0.78366    0.97294    0.86408   1.00
C6       0.75664    0.99863    0.80188   1.00
H2       0.66169    0.97158    0.90098   1.00
C6       0.67228    0.93335    0.85259   1.00
C6       0.71151    0.93524    0.91323   1.00
C6       0.73929    1.11808    0.98844   1.00
C6       0.80775    1.10967    1.01264   1.00
H2       0.78788    1.15456    0.97559   1.00
H2       0.85949    1.09494    0.94811   1.00
C6       0.86622    1.09550    0.88623   1.00
C6       0.86607    1.15441    0.92972   1.00
H2       0.79625    1.13919    0.86999   1.00
C6       0.73664    1.12332    0.87537   1.00
C6       0.76756    1.18239    0.90487   1.00
H2       0.64654    1.06933    0.88379   1.00
H2       0.61910    1.02744    0.87135   1.00
H2       0.62083    1.06810    0.83960   1.00
H2       0.65392    1.03632    0.77815   1.00
H2       0.67822    0.99217    0.78771   1.00
H2       0.63036    0.99942    0.80449   1.00
H2       0.81328    0.97929    0.85402   1.00
H2       0.78468    0.97357    0.89580   1.00
H2       0.77648    0.94337    0.85466   1.00
H2       0.74138    1.02220    0.78685   1.00
H2       0.78692    0.99984    0.79182   1.00
H2       0.74450    0.97070    0.79247   1.00
H2       0.69486    0.92742    0.83089   1.00
H2       0.66292    0.90539    0.86485   1.00
H2       0.64668    0.94496    0.83794   1.00
H2       0.73098    0.91553    0.89752   1.00
H2       0.72932    0.95138    0.93375   1.00
H2       0.69172    0.91709    0.93049   1.00
H2       0.73312    1.08856    0.99848   1.00
H2       0.73191    1.13780    1.01242   1.00
H2       0.71952    1.12477    0.96451   1.00
H2       0.79875    1.12543    1.03891   1.00
H2       0.80426    1.07873    1.01880   1.00
H2       0.83878    1.11566    1.00886   1.00
H2       0.89798    1.09360    0.88890   1.00
H2       0.85565    1.06593    0.88068   1.00
H2       0.85965    1.11335    0.86070   1.00
H2       0.85584    1.16838    0.95644   1.00
H2       0.89788    1.15255    0.93179   1.00
H2       0.85915    1.17335    0.90504   1.00
H2       0.71344    1.12006    0.89689   1.00
H2       0.72619    1.14263    0.85226   1.00
H2       0.74166    1.09497    0.86216   1.00
H2       0.75956    1.19931    0.87901   1.00
H2       0.74378    1.18513    0.92593   1.00
H2       0.79343    1.19618    0.91720   1.00
C4       1.27084    1.00040    0.99698   1.00
C4       1.22912    0.99981    0.99741   1.00
C3       1.29364    0.98589    0.96558   1.00
C3       1.20616    0.98150    0.96818   1.00
C3       1.29123    1.01575    1.02991   1.00
C3       1.20886    1.01857    1.02860   1.00
C2       1.35512    1.00087    0.99917   1.00
C2       1.14488    0.99913    1.00083   1.00
C3       1.33462    0.98590    0.96671   1.00
C3       1.16519    0.98147    0.96962   1.00
C3       1.33258    1.01617    1.03017   1.00
C3       1.16762    1.01676    1.03039   1.00
H1       1.28115    0.97501    0.94090   1.00
H1       1.21852    0.96743    0.94510   1.00
C5       1.27020    1.03074    1.06227   1.00
C5       1.22980    1.03872    1.05803   1.00
H1       1.34955    0.97476    0.94325   1.00
H1       1.15010    0.96806    0.94749   1.00
H1       1.34680    1.02826    1.05351   1.00
H1       1.15368    1.02816    1.05418   1.00
O3       1.28961    1.03942    1.09640   1.00
O3       1.21099    1.06335    1.08385   1.00
Si1      1.29247    1.00678    1.13100   1.00
Si1      1.20279    1.10841    1.07082   1.00
C6       1.32538    1.03241    1.16123   1.00
C6       1.24598    1.00331    1.15276   1.00
C6       1.31253    0.96204    1.11520   1.00
C6       1.21693    1.12309    1.02342   1.00
C6       1.15198    1.11283    1.07560   1.00
C6       1.22477    1.13868    1.10607   1.00
C6       1.36194    1.05028    1.14032   1.00
H2       1.30791    1.05741    1.17050   1.00
C6       1.34147    1.01369    1.19983   1.00
H2       1.23358    1.03193    1.14639   1.00
C6       1.21634    0.97294    1.13592   1.00
C6       1.24336    0.99863    1.19812   1.00
H2       1.33831    0.97158    1.09902   1.00
C6       1.32772    0.93335    1.14741   1.00
C6       1.28849    0.93524    1.08677   1.00
C6       1.26071    1.11808    1.01156   1.00
C6       1.19225    1.10967    0.98736   1.00
H2       1.21212    1.15456    1.02441   1.00
H2       1.14051    1.09494    1.05189   1.00
C6       1.13378    1.09550    1.11377   1.00
C6       1.13393    1.15441    1.07028   1.00
H2       1.20375    1.13919    1.13001   1.00
C6       1.26336    1.12332    1.12463   1.00
C6       1.23244    1.18239    1.09513   1.00
H2       1.35346    1.06933    1.11621   1.00
H2       1.38090    1.02744    1.12865   1.00
H2       1.37917    1.06810    1.16040   1.00
H2       1.34608    1.03632    1.22185   1.00
H2       1.32178    0.99217    1.21229   1.00
H2       1.36964    0.99942    1.19551   1.00
H2       1.18672    0.97929    1.14598   1.00
H2       1.21532    0.97357    1.10420   1.00
H2       1.22352    0.94337    1.14534   1.00
H2       1.25862    1.02220    1.21315   1.00
H2       1.21308    0.99984    1.20818   1.00
H2       1.25550    0.97070    1.20753   1.00
H2       1.30514    0.92742    1.16911   1.00
H2       1.33708    0.90539    1.13515   1.00
H2       1.35332    0.94496    1.16206   1.00
H2       1.26902    0.91553    1.10248   1.00
H2       1.27068    0.95138    1.06625   1.00
H2       1.30828    0.91709    1.06951   1.00
H2       1.26688    1.08856    1.00152   1.00
H2       1.26809    1.13780    0.98758   1.00
H2       1.28048    1.12477    1.03549   1.00
H2       1.20125    1.12543    0.96109   1.00
H2       1.19574    1.07873    0.98120   1.00
H2       1.16122    1.11566    0.99114   1.00
H2       1.10202    1.09360    1.11110   1.00
H2       1.14435    1.06593    1.11932   1.00
H2       1.14035    1.11335    1.13930   1.00
H2       1.14416    1.16838    1.04356   1.00
H2       1.10212    1.15255    1.06821   1.00
H2       1.14085    1.17335    1.09496   1.00
H2       1.28656    1.12006    1.10311   1.00
H2       1.27381    1.14263    1.14774   1.00
H2       1.25834    1.09497    1.13784   1.00
H2       1.24044    1.19931    1.12099   1.00
H2       1.25622    1.18513    1.07407   1.00
H2       1.20657    1.19618    1.08280   1.00
C4       1.00302    0.72916    1.00040   1.00
C4       1.00259    0.77088    0.99981   1.00
C3       1.03442    0.70636    0.98589   1.00
C3       1.03182    0.79384    0.98150   1.00
C3       0.97009    0.70877    1.01575   1.00
C3       0.97140    0.79114    1.01857   1.00
C2       1.00083    0.64488    1.00087   1.00
C2       0.99917    0.85512    0.99913   1.00
C3       1.03329    0.66538    0.98590   1.00
C3       1.03038    0.83481    0.98147   1.00
C3       0.96983    0.66742    1.01617   1.00
C3       0.96961    0.83238    1.01676   1.00
H1       1.05910    0.71885    0.97501   1.00
H1       1.05490    0.78148    0.96743   1.00
C5       0.93773    0.72980    1.03074   1.00
C5       0.94197    0.77020    1.03872   1.00
H1       1.05675    0.65045    0.97476   1.00
H1       1.05251    0.84990    0.96806   1.00
H1       0.94649    0.65320    1.02826   1.00
H1       0.94582    0.84632    1.02816   1.00
O3       0.90360    0.71039    1.03942   1.00
O3       0.91615    0.78901    1.06335   1.00
Si1      0.86900    0.70753    1.00678   1.00
Si1      0.92918    0.79721    1.10841   1.00
C6       0.83877    0.67462    1.03241   1.00
C6       0.84724    0.75402    1.00331   1.00
C6       0.88480    0.68747    0.96204   1.00
C6       0.97658    0.78307    1.12309   1.00
C6       0.92440    0.84802    1.11283   1.00
C6       0.89393    0.77523    1.13868   1.00
C6       0.85968    0.63806    1.05028   1.00
H2       0.82950    0.69209    1.05741   1.00
C6       0.80017    0.65853    1.01369   1.00
H2       0.85361    0.76642    1.03193   1.00
C6       0.86408    0.78366    0.97294   1.00
C6       0.80188    0.75664    0.99863   1.00
H2       0.90098    0.66169    0.97158   1.00
C6       0.85259    0.67228    0.93335   1.00
C6       0.91323    0.71151    0.93524   1.00
C6       0.98844    0.73929    1.11808   1.00
C6       1.01264    0.80775    1.10967   1.00
H2       0.97559    0.78788    1.15456   1.00
H2       0.94811    0.85949    1.09494   1.00
C6       0.88623    0.86622    1.09550   1.00
C6       0.92972    0.86607    1.15441   1.00
H2       0.86999    0.79625    1.13919   1.00
C6       0.87537    0.73664    1.12332   1.00
C6       0.90487    0.76756    1.18239   1.00
H2       0.88379    0.64654    1.06933   1.00
H2       0.87135    0.61910    1.02744   1.00
H2       0.83960    0.62083    1.06810   1.00
H2       0.77815    0.65392    1.03632   1.00
H2       0.78771    0.67822    0.99217   1.00
H2       0.80449    0.63036    0.99942   1.00
H2       0.85402    0.81328    0.97929   1.00
H2       0.89580    0.78468    0.97357   1.00
H2       0.85466    0.77648    0.94337   1.00
H2       0.78685    0.74138    1.02220   1.00
H2       0.79182    0.78692    0.99984   1.00
H2       0.79247    0.74450    0.97070   1.00
H2       0.83089    0.69486    0.92742   1.00
H2       0.86485    0.66292    0.90539   1.00
H2       0.83794    0.64668    0.94496   1.00
H2       0.89752    0.73098    0.91553   1.00
H2       0.93375    0.72932    0.95138   1.00
H2       0.93049    0.69172    0.91709   1.00
H2       0.99848    0.73312    1.08856   1.00
H2       1.01242    0.73191    1.13780   1.00
H2       0.96451    0.71952    1.12477   1.00
H2       1.03891    0.79875    1.12543   1.00
H2       1.01880    0.80426    1.07873   1.00
H2       1.00886    0.83878    1.11566   1.00
H2       0.88890    0.89798    1.09360   1.00
H2       0.88068    0.85565    1.06593   1.00
H2       0.86070    0.85965    1.11335   1.00
H2       0.95644    0.85584    1.16838   1.00
H2       0.93179    0.89788    1.15255   1.00
H2       0.90504    0.85915    1.17335   1.00
H2       0.89689    0.71344    1.12006   1.00
H2       0.85226    0.72619    1.14263   1.00
H2       0.86216    0.74166    1.09497   1.00
H2       0.87901    0.75956    1.19931   1.00
H2       0.92593    0.74378    1.18513   1.00
H2       0.91720    0.79343    1.19618   1.00
C4       1.00040    1.00302    0.72916   1.00
C4       0.99981    1.00259    0.77088   1.00
C3       0.98589    1.03442    0.70636   1.00
C3       0.98150    1.03182    0.79384   1.00
C3       1.01575    0.97009    0.70877   1.00
C3       1.01857    0.97140    0.79114   1.00
C2       1.00087    1.00083    0.64488   1.00
C2       0.99913    0.99917    0.85512   1.00
C3       0.98590    1.03329    0.66538   1.00
C3       0.98147    1.03038    0.83481   1.00
C3       1.01617    0.96983    0.66742   1.00
C3       1.01676    0.96961    0.83238   1.00
H1       0.97501    1.05910    0.71885   1.00
H1       0.96743    1.05490    0.78148   1.00
C5       1.03074    0.93773    0.72980   1.00
C5       1.03872    0.94197    0.77020   1.00
H1       0.97476    1.05675    0.65045   1.00
H1       0.96806    1.05251    0.84990   1.00
H1       1.02826    0.94649    0.65320   1.00
H1       1.02816    0.94582    0.84632   1.00
O3       1.03942    0.90360    0.71039   1.00
O3       1.06335    0.91615    0.78901   1.00
Si1      1.00678    0.86900    0.70753   1.00
Si1      1.10841    0.92918    0.79721   1.00
C6       1.03241    0.83877    0.67462   1.00
C6       1.00331    0.84724    0.75402   1.00
C6       0.96204    0.88480    0.68747   1.00
C6       1.12309    0.97658    0.78307   1.00
C6       1.11283    0.92440    0.84802   1.00
C6       1.13868    0.89393    0.77523   1.00
C6       1.05028    0.85968    0.63806   1.00
H2       1.05741    0.82950    0.69209   1.00
C6       1.01369    0.80017    0.65853   1.00
H2       1.03193    0.85361    0.76642   1.00
C6       0.97294    0.86408    0.78366   1.00
C6       0.99863    0.80188    0.75664   1.00
H2       0.97158    0.90098    0.66169   1.00
C6       0.93335    0.85259    0.67228   1.00
C6       0.93524    0.91323    0.71151   1.00
C6       1.11808    0.98844    0.73929   1.00
C6       1.10967    1.01264    0.80775   1.00
H2       1.15456    0.97559    0.78788   1.00
H2       1.09494    0.94811    0.85949   1.00
C6       1.09550    0.88623    0.86622   1.00
C6       1.15441    0.92972    0.86607   1.00
H2       1.13919    0.86999    0.79625   1.00
C6       1.12332    0.87537    0.73664   1.00
C6       1.18239    0.90487    0.76756   1.00
H2       1.06933    0.88379    0.64654   1.00
H2       1.02744    0.87135    0.61910   1.00
H2       1.06810    0.83960    0.62083   1.00
H2       1.03632    0.77815    0.65392   1.00
H2       0.99217    0.78771    0.67822   1.00
H2       0.99942    0.80449    0.63036   1.00
H2       0.97929    0.85402    0.81328   1.00
H2       0.97357    0.89580    0.78468   1.00
H2       0.94337    0.85466    0.77648   1.00
H2       1.02220    0.78685    0.74138   1.00
H2       0.99984    0.79182    0.78692   1.00
H2       0.97070    0.79247    0.74450   1.00
H2       0.92742    0.83089    0.69486   1.00
H2       0.90539    0.86485    0.66292   1.00
H2       0.94496    0.83794    0.64668   1.00
H2       0.91553    0.89752    0.73098   1.00
H2       0.95138    0.93375    0.72932   1.00
H2       0.91709    0.93049    0.69172   1.00
H2       1.08856    0.99848    0.73312   1.00
H2       1.13780    1.01242    0.73191   1.00
H2       1.12477    0.96451    0.71952   1.00
H2       1.12543    1.03891    0.79875   1.00
H2       1.07873    1.01880    0.80426   1.00
H2       1.11566    1.00886    0.83878   1.00
H2       1.09360    0.88890    0.89798   1.00
H2       1.06593    0.88068    0.85565   1.00
H2       1.11335    0.86070    0.85965   1.00
H2       1.16838    0.95644    0.85584   1.00
H2       1.15255    0.93179    0.89788   1.00
H2       1.17335    0.90504    0.85915   1.00
H2       1.12006    0.89689    0.71344   1.00
H2       1.14263    0.85226    0.72619   1.00
H2       1.09497    0.86216    0.74166   1.00
H2       1.19931    0.87901    0.75956   1.00
H2       1.18513    0.92593    0.74378   1.00
H2       1.19618    0.91720    0.79343   1.00
C4       0.50040    0.49698    1.27084   1.00
C4       0.49981    0.49741    1.22912   1.00
C3       0.48589    0.46558    1.29364   1.00
C3       0.48150    0.46818    1.20616   1.00
C3       0.51575    0.52991    1.29123   1.00
C3       0.51857    0.52860    1.20886   1.00
C2       0.50087    0.49917    1.35512   1.00
C2       0.49913    0.50083    1.14488   1.00
C3       0.48590    0.46671    1.33462   1.00
C3       0.48147    0.46962    1.16519   1.00
C3       0.51617    0.53017    1.33258   1.00
C3       0.51676    0.53039    1.16762   1.00
H1       0.47501    0.44090    1.28115   1.00
H1       0.46743    0.44510    1.21852   1.00
C5       0.53074    0.56227    1.27020   1.00
C5       0.53872    0.55803    1.22980   1.00
H1       0.47476    0.44325    1.34955   1.00
H1       0.46806    0.44749    1.15010   1.00
H1       0.52826    0.55351    1.34680   1.00
H1       0.52816    0.55418    1.15368   1.00
O3       0.53942    0.59640    1.28961   1.00
O3       0.56335    0.58385    1.21099   1.00
Si1      0.50678    0.63100    1.29247   1.00
Si1      0.60841    0.57082    1.20279   1.00
C6       0.53241    0.66123    1.32538   1.00
C6       0.50331    0.65276    1.24598   1.00
C6       0.46204    0.61520    1.31253   1.00
C6       0.62309    0.52342    1.21693   1.00
C6       0.61283    0.57560    1.15198   1.00
C6       0.63868    0.60607    1.22477   1.00
C6       0.55028    0.64032    1.36194   1.00
H2       0.55741    0.67050    1.30791   1.00
C6       0.51369    0.69983    1.34147   1.00
H2       0.53193    0.64639    1.23358   1.00
C6       0.47294    0.63592    1.21634   1.00
C6       0.49863    0.69812    1.24336   1.00
H2       0.47158    0.59902    1.33831   1.00
C6       0.43335    0.64741    1.32772   1.00
C6       0.43524    0.58677    1.28849   1.00
C6       0.61808    0.51156    1.26071   1.00
C6       0.60967    0.48736    1.19225   1.00
H2       0.65456    0.52441    1.21212   1.00
H2       0.59494    0.55189    1.14051   1.00
C6       0.59550    0.61377    1.13378   1.00
C6       0.65441    0.57028    1.13393   1.00
H2       0.63919    0.63001    1.20375   1.00
C6       0.62332    0.62463    1.26336   1.00
C6       0.68239    0.59513    1.23244   1.00
H2       0.56933    0.61621    1.35346   1.00
H2       0.52744    0.62865    1.38090   1.00
H2       0.56810    0.66040    1.37917   1.00
H2       0.53632    0.72185    1.34608   1.00
H2       0.49217    0.71229    1.32178   1.00
H2       0.49942    0.69551    1.36964   1.00
H2       0.47929    0.64598    1.18672   1.00
H2       0.47357    0.60420    1.21532   1.00
H2       0.44337    0.64534    1.22352   1.00
H2       0.52220    0.71315    1.25862   1.00
H2       0.49984    0.70818    1.21308   1.00
H2       0.47070    0.70753    1.25550   1.00
H2       0.42742    0.66911    1.30514   1.00
H2       0.40539    0.63515    1.33708   1.00
H2       0.44496    0.66206    1.35332   1.00
H2       0.41553    0.60248    1.26902   1.00
H2       0.45138    0.56625    1.27068   1.00
H2       0.41709    0.56951    1.30828   1.00
H2       0.58856    0.50152    1.26688   1.00
H2       0.63780    0.48758    1.26809   1.00
H2       0.62477    0.53549    1.28048   1.00
H2       0.62543    0.46109    1.20125   1.00
H2       0.57873    0.48120    1.19574   1.00
H2       0.61566    0.49114    1.16122   1.00
H2       0.59360    0.61110    1.10202   1.00
H2       0.56593    0.61932    1.14435   1.00
H2       0.61335    0.63930    1.14035   1.00
H2       0.66838    0.54356    1.14416   1.00
H2       0.65255    0.56821    1.10212   1.00
H2       0.67335    0.59496    1.14085   1.00
H2       0.62006    0.60311    1.28656   1.00
H2       0.64263    0.64774    1.27381   1.00
H2       0.59497    0.63784    1.25834   1.00
H2       0.69931    0.62099    1.24044   1.00
H2       0.68513    0.57407    1.25622   1.00
H2       0.69618    0.58280    1.20657   1.00
C4       0.49698    0.77084    1.00040   1.00
C4       0.49741    0.72912    0.99981   1.00
C3       0.46558    0.79364    0.98589   1.00
C3       0.46818    0.70616    0.98150   1.00
C3       0.52991    0.79123    1.01575   1.00
C3       0.52860    0.70886    1.01857   1.00
C2       0.49917    0.85512    1.00087   1.00
C2       0.50083    0.64488    0.99913   1.00
C3       0.46671    0.83462    0.98590   1.00
C3       0.46962    0.66519    0.98147   1.00
C3       0.53017    0.83258    1.01617   1.00
C3       0.53039    0.66762    1.01676   1.00
H1       0.44090    0.78115    0.97501   1.00
H1       0.44510    0.71852    0.96743   1.00
C5       0.56227    0.77020    1.03074   1.00
C5       0.55803    0.72980    1.03872   1.00
H1       0.44325    0.84955    0.97476   1.00
H1       0.44749    0.65010    0.96806   1.00
H1       0.55351    0.84680    1.02826   1.00
H1       0.55418    0.65368    1.02816   1.00
O3       0.59640    0.78961    1.03942   1.00
O3       0.58385    0.71099    1.06335   1.00
Si1      0.63100    0.79247    1.00678   1.00
Si1      0.57082    0.70279    1.10841   1.00
C6       0.66123    0.82538    1.03241   1.00
C6       0.65276    0.74598    1.00331   1.00
C6       0.61520    0.81253    0.96204   1.00
C6       0.52342    0.71693    1.12309   1.00
C6       0.57560    0.65198    1.11283   1.00
C6       0.60607    0.72477    1.13868   1.00
C6       0.64032    0.86194    1.05028   1.00
H2       0.67050    0.80791    1.05741   1.00
C6       0.69983    0.84147    1.01369   1.00
H2       0.64639    0.73358    1.03193   1.00
C6       0.63592    0.71634    0.97294   1.00
C6       0.69812    0.74336    0.99863   1.00
H2       0.59902    0.83831    0.97158   1.00
C6       0.64741    0.82772    0.93335   1.00
C6       0.58677    0.78849    0.93524   1.00
C6       0.51156    0.76071    1.11808   1.00
C6       0.48736    0.69225    1.10967   1.00
H2       0.52441    0.71212    1.15456   1.00
H2       0.55189    0.64051    1.09494   1.00
C6       0.61377    0.63378    1.09550   1.00
C6       0.57028    0.63393    1.15441   1.00
H2       0.63001    0.70375    1.13919   1.00
C6       0.62463    0.76336    1.12332   1.00
C6       0.59513    0.73244    1.18239   1.00
H2       0.61621    0.85346    1.06933   1.00
H2       0.62865    0.88090    1.02744   1.00
H2       0.66040    0.87917    1.06810   1.00
H2       0.72185    0.84608    1.03632   1.00
H2       0.71229    0.82178    0.99217   1.00
H2       0.69551    0.86964    0.99942   1.00
H2       0.64598    0.68672    0.97929   1.00
H2       0.60420    0.71532    0.97357   1.00
H2       0.64534    0.72352    0.94337   1.00
H2       0.71315    0.75862    1.02220   1.00
H2       0.70818    0.71308    0.99984   1.00
H2       0.70753    0.75550    0.97070   1.00
H2       0.66911    0.80514    0.92742   1.00
H2       0.63515    0.83708    0.90539   1.00
H2       0.66206    0.85332    0.94496   1.00
H2       0.60248    0.76902    0.91553   1.00
H2       0.56625    0.77068    0.95138   1.00
H2       0.56951    0.80828    0.91709   1.00
H2       0.50152    0.76688    1.08856   1.00
H2       0.48758    0.76809    1.13780   1.00
H2       0.53549    0.78048    1.12477   1.00
H2       0.46109    0.70125    1.12543   1.00
H2       0.48120    0.69574    1.07873   1.00
H2       0.49114    0.66122    1.11566   1.00
H2       0.61110    0.60202    1.09360   1.00
H2       0.61932    0.64435    1.06593   1.00
H2       0.63930    0.64035    1.11335   1.00
H2       0.54356    0.64416    1.16838   1.00
H2       0.56821    0.60212    1.15255   1.00
H2       0.59496    0.64085    1.17335   1.00
H2       0.60311    0.78656    1.12006   1.00
H2       0.64774    0.77381    1.14263   1.00
H2       0.63784    0.75834    1.09497   1.00
H2       0.62099    0.74044    1.19931   1.00
H2       0.57407    0.75622    1.18513   1.00
H2       0.58280    0.70657    1.19618   1.00
C4       0.22916    0.50040    1.00302   1.00
C4       0.27088    0.49981    1.00259   1.00
C3       0.20636    0.48589    1.03442   1.00
C3       0.29384    0.48150    1.03182   1.00
C3       0.20877    0.51575    0.97009   1.00
C3       0.29114    0.51857    0.97140   1.00
C2       0.14488    0.50087    1.00083   1.00
C2       0.35512    0.49913    0.99917   1.00
C3       0.16538    0.48590    1.03329   1.00
C3       0.33481    0.48147    1.03038   1.00
C3       0.16742    0.51617    0.96983   1.00
C3       0.33238    0.51676    0.96961   1.00
H1       0.21885    0.47501    1.05910   1.00
H1       0.28148    0.46743    1.05490   1.00
C5       0.22980    0.53074    0.93773   1.00
C5       0.27020    0.53872    0.94197   1.00
H1       0.15045    0.47476    1.05675   1.00
H1       0.34990    0.46806    1.05251   1.00
H1       0.15320    0.52826    0.94649   1.00
H1       0.34632    0.52816    0.94582   1.00
O3       0.21039    0.53942    0.90360   1.00
O3       0.28901    0.56335    0.91615   1.00
Si1      0.20753    0.50678    0.86900   1.00
Si1      0.29721    0.60841    0.92918   1.00
C6       0.17462    0.53241    0.83877   1.00
C6       0.25402    0.50331    0.84724   1.00
C6       0.18747    0.46204    0.88480   1.00
C6       0.28307    0.62309    0.97658   1.00
C6       0.34802    0.61283    0.92440   1.00
C6       0.27523    0.63868    0.89393   1.00
C6       0.13806    0.55028    0.85968   1.00
H2       0.19209    0.55741    0.82950   1.00
C6       0.15853    0.51369    0.80017   1.00
H2       0.26642    0.53193    0.85361   1.00
C6       0.28366    0.47294    0.86408   1.00
C6       0.25664    0.49863    0.80188   1.00
H2       0.16169    0.47158    0.90098   1.00
C6       0.17228    0.43335    0.85259   1.00
C6       0.21151    0.43524    0.91323   1.00
C6       0.23929    0.61808    0.98844   1.00
C6       0.30775    0.60967    1.01264   1.00
H2       0.28788    0.65456    0.97559   1.00
H2       0.35949    0.59494    0.94811   1.00
C6       0.36622    0.59550    0.88623   1.00
C6       0.36607    0.65441    0.92972   1.00
H2       0.29625    0.63919    0.86999   1.00
C6       0.23664    0.62332    0.87537   1.00
C6       0.26756    0.68239    0.90487   1.00
H2       0.14654    0.56933    0.88379   1.00
H2       0.11910    0.52744    0.87135   1.00
H2       0.12083    0.56810    0.83960   1.00
H2       0.15392    0.53632    0.77815   1.00
H2       0.17822    0.49217    0.78771   1.00
H2       0.13036    0.49942    0.80449   1.00
H2       0.31328    0.47929    0.85402   1.00
H2       0.28468    0.47357    0.89580   1.00
H2       0.27648    0.44337    0.85466   1.00
H2       0.24138    0.52220    0.78685   1.00
H2       0.28692    0.49984    0.79182   1.00
H2       0.24450    0.47070    0.79247   1.00
H2       0.19486    0.42742    0.83089   1.00
H2       0.16292    0.40539    0.86485   1.00
H2       0.14668    0.44496    0.83794   1.00
H2       0.23098    0.41553    0.89752   1.00
H2       0.22932    0.45138    0.93375   1.00
H2       0.19172    0.41709    0.93049   1.00
H2       0.23312    0.58856    0.99848   1.00
H2       0.23191    0.63780    1.01242   1.00
H2       0.21952    0.62477    0.96451   1.00
H2       0.29875    0.62543    1.03891   1.00
H2       0.30426    0.57873    1.01880   1.00
H2       0.33878    0.61566    1.00886   1.00
H2       0.39798    0.59360    0.88890   1.00
H2       0.35565    0.56593    0.88068   1.00
H2       0.35965    0.61335    0.86070   1.00
H2       0.35584    0.66838    0.95644   1.00
H2       0.39788    0.65255    0.93179   1.00
H2       0.35915    0.67335    0.90504   1.00
H2       0.21344    0.62006    0.89689   1.00
H2       0.22619    0.64263    0.85226   1.00
H2       0.24166    0.59497    0.86216   1.00
H2       0.25956    0.69931    0.87901   1.00
H2       0.24378    0.68513    0.92593   1.00
H2       0.29343    0.69618    0.91720   1.00
C4       0.77084    0.50040    0.99698   1.00
C4       0.72912    0.49981    0.99741   1.00
C3       0.79364    0.48589    0.96558   1.00
C3       0.70616    0.48150    0.96818   1.00
C3       0.79123    0.51575    1.02991   1.00
C3       0.70886    0.51857    1.02860   1.00
C2       0.85512    0.50087    0.99917   1.00
C2       0.64488    0.49913    1.00083   1.00
C3       0.83462    0.48590    0.96671   1.00
C3       0.66519    0.48147    0.96962   1.00
C3       0.83258    0.51617    1.03017   1.00
C3       0.66762    0.51676    1.03039   1.00
H1       0.78115    0.47501    0.94090   1.00
H1       0.71852    0.46743    0.94510   1.00
C5       0.77020    0.53074    1.06227   1.00
C5       0.72980    0.53872    1.05803   1.00
H1       0.84955    0.47476    0.94325   1.00
H1       0.65010    0.46806    0.94749   1.00
H1       0.84680    0.52826    1.05351   1.00
H1       0.65368    0.52816    1.05418   1.00
O3       0.78961    0.53942    1.09640   1.00
O3       0.71099    0.56335    1.08385   1.00
Si1      0.79247    0.50678    1.13100   1.00
Si1      0.70279    0.60841    1.07082   1.00
C6       0.82538    0.53241    1.16123   1.00
C6       0.74598    0.50331    1.15276   1.00
C6       0.81253    0.46204    1.11520   1.00
C6       0.71693    0.62309    1.02342   1.00
C6       0.65198    0.61283    1.07560   1.00
C6       0.72477    0.63868    1.10607   1.00
C6       0.86194    0.55028    1.14032   1.00
H2       0.80791    0.55741    1.17050   1.00
C6       0.84147    0.51369    1.19983   1.00
H2       0.73358    0.53193    1.14639   1.00
C6       0.71634    0.47294    1.13592   1.00
C6       0.74336    0.49863    1.19812   1.00
H2       0.83831    0.47158    1.09902   1.00
C6       0.82772    0.43335    1.14741   1.00
C6       0.78849    0.43524    1.08677   1.00
C6       0.76071    0.61808    1.01156   1.00
C6       0.69225    0.60967    0.98736   1.00
H2       0.71212    0.65456    1.02441   1.00
H2       0.64051    0.59494    1.05189   1.00
C6       0.63378    0.59550    1.11377   1.00
C6       0.63393    0.65441    1.07028   1.00
H2       0.70375    0.63919    1.13001   1.00
C6       0.76336    0.62332    1.12463   1.00
C6       0.73244    0.68239    1.09513   1.00
H2       0.85346    0.56933    1.11621   1.00
H2       0.88090    0.52744    1.12865   1.00
H2       0.87917    0.56810    1.16040   1.00
H2       0.84608    0.53632    1.22185   1.00
H2       0.82178    0.49217    1.21229   1.00
H2       0.86964    0.49942    1.19551   1.00
H2       0.68672    0.47929    1.14598   1.00
H2       0.71532    0.47357    1.10420   1.00
H2       0.72352    0.44337    1.14534   1.00
H2       0.75862    0.52220    1.21315   1.00
H2       0.71308    0.49984    1.20818   1.00
H2       0.75550    0.47070    1.20753   1.00
H2       0.80514    0.42742    1.16911   1.00
H2       0.83708    0.40539    1.13515   1.00
H2       0.85332    0.44496    1.16206   1.00
H2       0.76902    0.41553    1.10248   1.00
H2       0.77068    0.45138    1.06625   1.00
H2       0.80828    0.41709    1.06951   1.00
H2       0.76688    0.58856    1.00152   1.00
H2       0.76809    0.63780    0.98758   1.00
H2       0.78048    0.62477    1.03549   1.00
H2       0.70125    0.62543    0.96109   1.00
H2       0.69574    0.57873    0.98120   1.00
H2       0.66122    0.61566    0.99114   1.00
H2       0.60202    0.59360    1.11110   1.00
H2       0.64435    0.56593    1.11932   1.00
H2       0.64035    0.61335    1.13930   1.00
H2       0.64416    0.66838    1.04356   1.00
H2       0.60212    0.65255    1.06821   1.00
H2       0.64085    0.67335    1.09496   1.00
H2       0.78656    0.62006    1.10311   1.00
H2       0.77381    0.64263    1.14774   1.00
H2       0.75834    0.59497    1.13784   1.00
H2       0.74044    0.69931    1.12099   1.00
H2       0.75622    0.68513    1.07407   1.00
H2       0.70657    0.69618    1.08280   1.00
C4       0.50302    0.22916    1.00040   1.00
C4       0.50259    0.27088    0.99981   1.00
C3       0.53442    0.20636    0.98589   1.00
C3       0.53182    0.29384    0.98150   1.00
C3       0.47009    0.20877    1.01575   1.00
C3       0.47140    0.29114    1.01857   1.00
C2       0.50083    0.14488    1.00087   1.00
C2       0.49917    0.35512    0.99913   1.00
C3       0.53329    0.16538    0.98590   1.00
C3       0.53038    0.33481    0.98147   1.00
C3       0.46983    0.16742    1.01617   1.00
C3       0.46961    0.33238    1.01676   1.00
H1       0.55910    0.21885    0.97501   1.00
H1       0.55490    0.28148    0.96743   1.00
C5       0.43773    0.22980    1.03074   1.00
C5       0.44197    0.27020    1.03872   1.00
H1       0.55675    0.15045    0.97476   1.00
H1       0.55251    0.34990    0.96806   1.00
H1       0.44649    0.15320    1.02826   1.00
H1       0.44582    0.34632    1.02816   1.00
O3       0.40360    0.21039    1.03942   1.00
O3       0.41615    0.28901    1.06335   1.00
Si1      0.36900    0.20753    1.00678   1.00
Si1      0.42918    0.29721    1.10841   1.00
C6       0.33877    0.17462    1.03241   1.00
C6       0.34724    0.25402    1.00331   1.00
C6       0.38480    0.18747    0.96204   1.00
C6       0.47658    0.28307    1.12309   1.00
C6       0.42440    0.34802    1.11283   1.00
C6       0.39393    0.27523    1.13868   1.00
C6       0.35968    0.13806    1.05028   1.00
H2       0.32950    0.19209    1.05741   1.00
C6       0.30017    0.15853    1.01369   1.00
H2       0.35361    0.26642    1.03193   1.00
C6       0.36408    0.28366    0.97294   1.00
C6       0.30188    0.25664    0.99863   1.00
H2       0.40098    0.16169    0.97158   1.00
C6       0.35259    0.17228    0.93335   1.00
C6       0.41323    0.21151    0.93524   1.00
C6       0.48844    0.23929    1.11808   1.00
C6       0.51264    0.30775    1.10967   1.00
H2       0.47559    0.28788    1.15456   1.00
H2       0.44811    0.35949    1.09494   1.00
C6       0.38623    0.36622    1.09550   1.00
C6       0.42972    0.36607    1.15441   1.00
H2       0.36999    0.29625    1.13919   1.00
C6       0.37537    0.23664    1.12332   1.00
C6       0.40487    0.26756    1.18239   1.00
H2       0.38379    0.14654    1.06933   1.00
H2       0.37135    0.11910    1.02744   1.00
H2       0.33960    0.12083    1.06810   1.00
H2       0.27815    0.15392    1.03632   1.00
H2       0.28771    0.17822    0.99217   1.00
H2       0.30449    0.13036    0.99942   1.00
H2       0.35402    0.31328    0.97929   1.00
H2       0.39580    0.28468    0.97357   1.00
H2       0.35466    0.27648    0.94337   1.00
H2       0.28685    0.24138    1.02220   1.00
H2       0.29182    0.28692    0.99984   1.00
H2       0.29247    0.24450    0.97070   1.00
H2       0.33089    0.19486    0.92742   1.00
H2       0.36485    0.16292    0.90539   1.00
H2       0.33794    0.14668    0.94496   1.00
H2       0.39752    0.23098    0.91553   1.00
H2       0.43375    0.22932    0.95138   1.00
H2       0.43049    0.19172    0.91709   1.00
H2       0.49848    0.23312    1.08856   1.00
H2       0.51242    0.23191    1.13780   1.00
H2       0.46451    0.21952    1.12477   1.00
H2       0.53891    0.29875    1.12543   1.00
H2       0.51880    0.30426    1.07873   1.00
H2       0.50886    0.33878    1.11566   1.00
H2       0.38890    0.39798    1.09360   1.00
H2       0.38068    0.35565    1.06593   1.00
H2       0.36070    0.35965    1.11335   1.00
H2       0.45644    0.35584    1.16838   1.00
H2       0.43179    0.39788    1.15255   1.00
H2       0.40504    0.35915    1.17335   1.00
H2       0.39689    0.21344    1.12006   1.00
H2       0.35226    0.22619    1.14263   1.00
H2       0.36216    0.24166    1.09497   1.00
H2       0.37901    0.25956    1.19931   1.00
H2       0.42593    0.24378    1.18513   1.00
H2       0.41720    0.29343    1.19618   1.00
C4       0.50040    0.50302    0.72916   1.00
C4       0.49981    0.50259    0.77088   1.00
C3       0.48589    0.53442    0.70636   1.00
C3       0.48150    0.53182    0.79384   1.00
C3       0.51575    0.47009    0.70877   1.00
C3       0.51857    0.47140    0.79114   1.00
C2       0.50087    0.50083    0.64488   1.00
C2       0.49913    0.49917    0.85512   1.00
C3       0.48590    0.53329    0.66538   1.00
C3       0.48147    0.53038    0.83481   1.00
C3       0.51617    0.46983    0.66742   1.00
C3       0.51676    0.46961    0.83238   1.00
H1       0.47501    0.55910    0.71885   1.00
H1       0.46743    0.55490    0.78148   1.00
C5       0.53074    0.43773    0.72980   1.00
C5       0.53872    0.44197    0.77020   1.00
H1       0.47476    0.55675    0.65045   1.00
H1       0.46806    0.55251    0.84990   1.00
H1       0.52826    0.44649    0.65320   1.00
H1       0.52816    0.44582    0.84632   1.00
O3       0.53942    0.40360    0.71039   1.00
O3       0.56335    0.41615    0.78901   1.00
Si1      0.50678    0.36900    0.70753   1.00
Si1      0.60841    0.42918    0.79721   1.00
C6       0.53241    0.33877    0.67462   1.00
C6       0.50331    0.34724    0.75402   1.00
C6       0.46204    0.38480    0.68747   1.00
C6       0.62309    0.47658    0.78307   1.00
C6       0.61283    0.42440    0.84802   1.00
C6       0.63868    0.39393    0.77523   1.00
C6       0.55028    0.35968    0.63806   1.00
H2       0.55741    0.32950    0.69209   1.00
C6       0.51369    0.30017    0.65853   1.00
H2       0.53193    0.35361    0.76642   1.00
C6       0.47294    0.36408    0.78366   1.00
C6       0.49863    0.30188    0.75664   1.00
H2       0.47158    0.40098    0.66169   1.00
C6       0.43335    0.35259    0.67228   1.00
C6       0.43524    0.41323    0.71151   1.00
C6       0.61808    0.48844    0.73929   1.00
C6       0.60967    0.51264    0.80775   1.00
H2       0.65456    0.47559    0.78788   1.00
H2       0.59494    0.44811    0.85949   1.00
C6       0.59550    0.38623    0.86622   1.00
C6       0.65441    0.42972    0.86607   1.00
H2       0.63919    0.36999    0.79625   1.00
C6       0.62332    0.37537    0.73664   1.00
C6       0.68239    0.40487    0.76756   1.00
H2       0.56933    0.38379    0.64654   1.00
H2       0.52744    0.37135    0.61910   1.00
H2       0.56810    0.33960    0.62083   1.00
H2       0.53632    0.27815    0.65392   1.00
H2       0.49217    0.28771    0.67822   1.00
H2       0.49942    0.30449    0.63036   1.00
H2       0.47929    0.35402    0.81328   1.00
H2       0.47357    0.39580    0.78468   1.00
H2       0.44337    0.35466    0.77648   1.00
H2       0.52220    0.28685    0.74138   1.00
H2       0.49984    0.29182    0.78692   1.00
H2       0.47070    0.29247    0.74450   1.00
H2       0.42742    0.33089    0.69486   1.00
H2       0.40539    0.36485    0.66292   1.00
H2       0.44496    0.33794    0.64668   1.00
H2       0.41553    0.39752    0.73098   1.00
H2       0.45138    0.43375    0.72932   1.00
H2       0.41709    0.43049    0.69172   1.00
H2       0.58856    0.49848    0.73312   1.00
H2       0.63780    0.51242    0.73191   1.00
H2       0.62477    0.46451    0.71952   1.00
H2       0.62543    0.53891    0.79875   1.00
H2       0.57873    0.51880    0.80426   1.00
H2       0.61566    0.50886    0.83878   1.00
H2       0.59360    0.38890    0.89798   1.00
H2       0.56593    0.38068    0.85565   1.00
H2       0.61335    0.36070    0.85965   1.00
H2       0.66838    0.45644    0.85584   1.00
H2       0.65255    0.43179    0.89788   1.00
H2       0.67335    0.40504    0.85915   1.00
H2       0.62006    0.39689    0.71344   1.00
H2       0.64263    0.35226    0.72619   1.00
H2       0.59497    0.36216    0.74166   1.00
H2       0.69931    0.37901    0.75956   1.00
H2       0.68513    0.42593    0.74378   1.00
H2       0.69618    0.41720    0.79343   1.00
C4       0.50040    0.99698    0.77084   1.00
C4       0.49981    0.99741    0.72912   1.00
C3       0.48589    0.96558    0.79364   1.00
C3       0.48150    0.96818    0.70616   1.00
C3       0.51575    1.02991    0.79123   1.00
C3       0.51857    1.02860    0.70886   1.00
C2       0.50087    0.99917    0.85512   1.00
C2       0.49913    1.00083    0.64488   1.00
C3       0.48590    0.96671    0.83462   1.00
C3       0.48147    0.96962    0.66519   1.00
C3       0.51617    1.03017    0.83258   1.00
C3       0.51676    1.03039    0.66762   1.00
H1       0.47501    0.94090    0.78115   1.00
H1       0.46743    0.94510    0.71852   1.00
C5       0.53074    1.06227    0.77020   1.00
C5       0.53872    1.05803    0.72980   1.00
H1       0.47476    0.94325    0.84955   1.00
H1       0.46806    0.94749    0.65010   1.00
H1       0.52826    1.05351    0.84680   1.00
H1       0.52816    1.05418    0.65368   1.00
O3       0.53942    1.09640    0.78961   1.00
O3       0.56335    1.08385    0.71099   1.00
Si1      0.50678    1.13100    0.79247   1.00
Si1      0.60841    1.07082    0.70279   1.00
C6       0.53241    1.16123    0.82538   1.00
C6       0.50331    1.15276    0.74598   1.00
C6       0.46204    1.11520    0.81253   1.00
C6       0.62309    1.02342    0.71693   1.00
C6       0.61283    1.07560    0.65198   1.00
C6       0.63868    1.10607    0.72477   1.00
C6       0.55028    1.14032    0.86194   1.00
H2       0.55741    1.17050    0.80791   1.00
C6       0.51369    1.19983    0.84147   1.00
H2       0.53193    1.14639    0.73358   1.00
C6       0.47294    1.13592    0.71634   1.00
C6       0.49863    1.19812    0.74336   1.00
H2       0.47158    1.09902    0.83831   1.00
C6       0.43335    1.14741    0.82772   1.00
C6       0.43524    1.08677    0.78849   1.00
C6       0.61808    1.01156    0.76071   1.00
C6       0.60967    0.98736    0.69225   1.00
H2       0.65456    1.02441    0.71212   1.00
H2       0.59494    1.05189    0.64051   1.00
C6       0.59550    1.11377    0.63378   1.00
C6       0.65441    1.07028    0.63393   1.00
H2       0.63919    1.13001    0.70375   1.00
C6       0.62332    1.12463    0.76336   1.00
C6       0.68239    1.09513    0.73244   1.00
H2       0.56933    1.11621    0.85346   1.00
H2       0.52744    1.12865    0.88090   1.00
H2       0.56810    1.16040    0.87917   1.00
H2       0.53632    1.22185    0.84608   1.00
H2       0.49217    1.21229    0.82178   1.00
H2       0.49942    1.19551    0.86964   1.00
H2       0.47929    1.14598    0.68672   1.00
H2       0.47357    1.10420    0.71532   1.00
H2       0.44337    1.14534    0.72352   1.00
H2       0.52220    1.21315    0.75862   1.00
H2       0.49984    1.20818    0.71308   1.00
H2       0.47070    1.20753    0.75550   1.00
H2       0.42742    1.16911    0.80514   1.00
H2       0.40539    1.13515    0.83708   1.00
H2       0.44496    1.16206    0.85332   1.00
H2       0.41553    1.10248    0.76902   1.00
H2       0.45138    1.06625    0.77068   1.00
H2       0.41709    1.06951    0.80828   1.00
H2       0.58856    1.00152    0.76688   1.00
H2       0.63780    0.98758    0.76809   1.00
H2       0.62477    1.03549    0.78048   1.00
H2       0.62543    0.96109    0.70125   1.00
H2       0.57873    0.98120    0.69574   1.00
H2       0.61566    0.99114    0.66122   1.00
H2       0.59360    1.11110    0.60202   1.00
H2       0.56593    1.11932    0.64435   1.00
H2       0.61335    1.13930    0.64035   1.00
H2       0.66838    1.04356    0.64416   1.00
H2       0.65255    1.06821    0.60212   1.00
H2       0.67335    1.09496    0.64085   1.00
H2       0.62006    1.10311    0.78656   1.00
H2       0.64263    1.14774    0.77381   1.00
H2       0.59497    1.13784    0.75834   1.00
H2       0.69931    1.12099    0.74044   1.00
H2       0.68513    1.07407    0.75622   1.00
H2       0.69618    1.08280    0.70657   1.00
C4       0.49698    1.27084    0.50040   1.00
C4       0.49741    1.22912    0.49981   1.00
C3       0.46558    1.29364    0.48589   1.00
C3       0.46818    1.20616    0.48150   1.00
C3       0.52991    1.29123    0.51575   1.00
C3       0.52860    1.20886    0.51857   1.00
C2       0.49917    1.35512    0.50087   1.00
C2       0.50083    1.14488    0.49913   1.00
C3       0.46671    1.33462    0.48590   1.00
C3       0.46962    1.16519    0.48147   1.00
C3       0.53017    1.33258    0.51617   1.00
C3       0.53039    1.16762    0.51676   1.00
H1       0.44090    1.28115    0.47501   1.00
H1       0.44510    1.21852    0.46743   1.00
C5       0.56227    1.27020    0.53074   1.00
C5       0.55803    1.22980    0.53872   1.00
H1       0.44325    1.34955    0.47476   1.00
H1       0.44749    1.15010    0.46806   1.00
H1       0.55351    1.34680    0.52826   1.00
H1       0.55418    1.15368    0.52816   1.00
O3       0.59640    1.28961    0.53942   1.00
O3       0.58385    1.21099    0.56335   1.00
Si1      0.63100    1.29247    0.50678   1.00
Si1      0.57082    1.20279    0.60841   1.00
C6       0.66123    1.32538    0.53241   1.00
C6       0.65276    1.24598    0.50331   1.00
C6       0.61520    1.31253    0.46204   1.00
C6       0.52342    1.21693    0.62309   1.00
C6       0.57560    1.15198    0.61283   1.00
C6       0.60607    1.22477    0.63868   1.00
C6       0.64032    1.36194    0.55028   1.00
H2       0.67050    1.30791    0.55741   1.00
C6       0.69983    1.34147    0.51369   1.00
H2       0.64639    1.23358    0.53193   1.00
C6       0.63592    1.21634    0.47294   1.00
C6       0.69812    1.24336    0.49863   1.00
H2       0.59902    1.33831    0.47158   1.00
C6       0.64741    1.32772    0.43335   1.00
C6       0.58677    1.28849    0.43524   1.00
C6       0.51156    1.26071    0.61808   1.00
C6       0.48736    1.19225    0.60967   1.00
H2       0.52441    1.21212    0.65456   1.00
H2       0.55189    1.14051    0.59494   1.00
C6       0.61377    1.13378    0.59550   1.00
C6       0.57028    1.13393    0.65441   1.00
H2       0.63001    1.20375    0.63919   1.00
C6       0.62463    1.26336    0.62332   1.00
C6       0.59513    1.23244    0.68239   1.00
H2       0.61621    1.35346    0.56933   1.00
H2       0.62865    1.38090    0.52744   1.00
H2       0.66040    1.37917    0.56810   1.00
H2       0.72185    1.34608    0.53632   1.00
H2       0.71229    1.32178    0.49217   1.00
H2       0.69551    1.36964    0.49942   1.00
H2       0.64598    1.18672    0.47929   1.00
H2       0.60420    1.21532    0.47357   1.00
H2       0.64534    1.22352    0.44337   1.00
H2       0.71315    1.25862    0.52220   1.00
H2       0.70818    1.21308    0.49984   1.00
H2       0.70753    1.25550    0.47070   1.00
H2       0.66911    1.30514    0.42742   1.00
H2       0.63515    1.33708    0.40539   1.00
H2       0.66206    1.35332    0.44496   1.00
H2       0.60248    1.26902    0.41553   1.00
H2       0.56625    1.27068    0.45138   1.00
H2       0.56951    1.30828    0.41709   1.00
H2       0.50152    1.26688    0.58856   1.00
H2       0.48758    1.26809    0.63780   1.00
H2       0.53549    1.28048    0.62477   1.00
H2       0.46109    1.20125    0.62543   1.00
H2       0.48120    1.19574    0.57873   1.00
H2       0.49114    1.16122    0.61566   1.00
H2       0.61110    1.10202    0.59360   1.00
H2       0.61932    1.14435    0.56593   1.00
H2       0.63930    1.14035    0.61335   1.00
H2       0.54356    1.14416    0.66838   1.00
H2       0.56821    1.10212    0.65255   1.00
H2       0.59496    1.14085    0.67335   1.00
H2       0.60311    1.28656    0.62006   1.00
H2       0.64774    1.27381    0.64263   1.00
H2       0.63784    1.25834    0.59497   1.00
H2       0.62099    1.24044    0.69931   1.00
H2       0.57407    1.25622    0.68513   1.00
H2       0.58280    1.20657    0.69618   1.00
C4       0.22916    1.00040    0.50302   1.00
C4       0.27088    0.99981    0.50259   1.00
C3       0.20636    0.98589    0.53442   1.00
C3       0.29384    0.98150    0.53182   1.00
C3       0.20877    1.01575    0.47009   1.00
C3       0.29114    1.01857    0.47140   1.00
C2       0.14488    1.00087    0.50083   1.00
C2       0.35512    0.99913    0.49917   1.00
C3       0.16538    0.98590    0.53329   1.00
C3       0.33481    0.98147    0.53038   1.00
C3       0.16742    1.01617    0.46983   1.00
C3       0.33238    1.01676    0.46961   1.00
H1       0.21885    0.97501    0.55910   1.00
H1       0.28148    0.96743    0.55490   1.00
C5       0.22980    1.03074    0.43773   1.00
C5       0.27020    1.03872    0.44197   1.00
H1       0.15045    0.97476    0.55675   1.00
H1       0.34990    0.96806    0.55251   1.00
H1       0.15320    1.02826    0.44649   1.00
H1       0.34632    1.02816    0.44582   1.00
O3       0.21039    1.03942    0.40360   1.00
O3       0.28901    1.06335    0.41615   1.00
Si1      0.20753    1.00678    0.36900   1.00
Si1      0.29721    1.10841    0.42918   1.00
C6       0.17462    1.03241    0.33877   1.00
C6       0.25402    1.00331    0.34724   1.00
C6       0.18747    0.96204    0.38480   1.00
C6       0.28307    1.12309    0.47658   1.00
C6       0.34802    1.11283    0.42440   1.00
C6       0.27523    1.13868    0.39393   1.00
C6       0.13806    1.05028    0.35968   1.00
H2       0.19209    1.05741    0.32950   1.00
C6       0.15853    1.01369    0.30017   1.00
H2       0.26642    1.03193    0.35361   1.00
C6       0.28366    0.97294    0.36408   1.00
C6       0.25664    0.99863    0.30188   1.00
H2       0.16169    0.97158    0.40098   1.00
C6       0.17228    0.93335    0.35259   1.00
C6       0.21151    0.93524    0.41323   1.00
C6       0.23929    1.11808    0.48844   1.00
C6       0.30775    1.10967    0.51264   1.00
H2       0.28788    1.15456    0.47559   1.00
H2       0.35949    1.09494    0.44811   1.00
C6       0.36622    1.09550    0.38623   1.00
C6       0.36607    1.15441    0.42972   1.00
H2       0.29625    1.13919    0.36999   1.00
C6       0.23664    1.12332    0.37537   1.00
C6       0.26756    1.18239    0.40487   1.00
H2       0.14654    1.06933    0.38379   1.00
H2       0.11910    1.02744    0.37135   1.00
H2       0.12083    1.06810    0.33960   1.00
H2       0.15392    1.03632    0.27815   1.00
H2       0.17822    0.99217    0.28771   1.00
H2       0.13036    0.99942    0.30449   1.00
H2       0.31328    0.97929    0.35402   1.00
H2       0.28468    0.97357    0.39580   1.00
H2       0.27648    0.94337    0.35466   1.00
H2       0.24138    1.02220    0.28685   1.00
H2       0.28692    0.99984    0.29182   1.00
H2       0.24450    0.97070    0.29247   1.00
H2       0.19486    0.92742    0.33089   1.00
H2       0.16292    0.90539    0.36485   1.00
H2       0.14668    0.94496    0.33794   1.00
H2       0.23098    0.91553    0.39752   1.00
H2       0.22932    0.95138    0.43375   1.00
H2       0.19172    0.91709    0.43049   1.00
H2       0.23312    1.08856    0.49848   1.00
H2       0.23191    1.13780    0.51242   1.00
H2       0.21952    1.12477    0.46451   1.00
H2       0.29875    1.12543    0.53891   1.00
H2       0.30426    1.07873    0.51880   1.00
H2       0.33878    1.11566    0.50886   1.00
H2       0.39798    1.09360    0.38890   1.00
H2       0.35565    1.06593    0.38068   1.00
H2       0.35965    1.11335    0.36070   1.00
H2       0.35584    1.16838    0.45644   1.00
H2       0.39788    1.15255    0.43179   1.00
H2       0.35915    1.17335    0.40504   1.00
H2       0.21344    1.12006    0.39689   1.00
H2       0.22619    1.14263    0.35226   1.00
H2       0.24166    1.09497    0.36216   1.00
H2       0.25956    1.19931    0.37901   1.00
H2       0.24378    1.18513    0.42593   1.00
H2       0.29343    1.19618    0.41720   1.00
C4       0.77084    1.00040    0.49698   1.00
C4       0.72912    0.99981    0.49741   1.00
C3       0.79364    0.98589    0.46558   1.00
C3       0.70616    0.98150    0.46818   1.00
C3       0.79123    1.01575    0.52991   1.00
C3       0.70886    1.01857    0.52860   1.00
C2       0.85512    1.00087    0.49917   1.00
C2       0.64488    0.99913    0.50083   1.00
C3       0.83462    0.98590    0.46671   1.00
C3       0.66519    0.98147    0.46962   1.00
C3       0.83258    1.01617    0.53017   1.00
C3       0.66762    1.01676    0.53039   1.00
H1       0.78115    0.97501    0.44090   1.00
H1       0.71852    0.96743    0.44510   1.00
C5       0.77020    1.03074    0.56227   1.00
C5       0.72980    1.03872    0.55803   1.00
H1       0.84955    0.97476    0.44325   1.00
H1       0.65010    0.96806    0.44749   1.00
H1       0.84680    1.02826    0.55351   1.00
H1       0.65368    1.02816    0.55418   1.00
O3       0.78961    1.03942    0.59640   1.00
O3       0.71099    1.06335    0.58385   1.00
Si1      0.79247    1.00678    0.63100   1.00
Si1      0.70279    1.10841    0.57082   1.00
C6       0.82538    1.03241    0.66123   1.00
C6       0.74598    1.00331    0.65276   1.00
C6       0.81253    0.96204    0.61520   1.00
C6       0.71693    1.12309    0.52342   1.00
C6       0.65198    1.11283    0.57560   1.00
C6       0.72477    1.13868    0.60607   1.00
C6       0.86194    1.05028    0.64032   1.00
H2       0.80791    1.05741    0.67050   1.00
C6       0.84147    1.01369    0.69983   1.00
H2       0.73358    1.03193    0.64639   1.00
C6       0.71634    0.97294    0.63592   1.00
C6       0.74336    0.99863    0.69812   1.00
H2       0.83831    0.97158    0.59902   1.00
C6       0.82772    0.93335    0.64741   1.00
C6       0.78849    0.93524    0.58677   1.00
C6       0.76071    1.11808    0.51156   1.00
C6       0.69225    1.10967    0.48736   1.00
H2       0.71212    1.15456    0.52441   1.00
H2       0.64051    1.09494    0.55189   1.00
C6       0.63378    1.09550    0.61377   1.00
C6       0.63393    1.15441    0.57028   1.00
H2       0.70375    1.13919    0.63001   1.00
C6       0.76336    1.12332    0.62463   1.00
C6       0.73244    1.18239    0.59513   1.00
H2       0.85346    1.06933    0.61621   1.00
H2       0.88090    1.02744    0.62865   1.00
H2       0.87917    1.06810    0.66040   1.00
H2       0.84608    1.03632    0.72185   1.00
H2       0.82178    0.99217    0.71229   1.00
H2       0.86964    0.99942    0.69551   1.00
H2       0.68672    0.97929    0.64598   1.00
H2       0.71532    0.97357    0.60420   1.00
H2       0.72352    0.94337    0.64534   1.00
H2       0.75862    1.02220    0.71315   1.00
H2       0.71308    0.99984    0.70818   1.00
H2       0.75550    0.97070    0.70753   1.00
H2       0.80514    0.92742    0.66911   1.00
H2       0.83708    0.90539    0.63515   1.00
H2       0.85332    0.94496    0.66206   1.00
H2       0.76902    0.91553    0.60248   1.00
H2       0.77068    0.95138    0.56625   1.00
H2       0.80828    0.91709    0.56951   1.00
H2       0.76688    1.08856    0.50152   1.00
H2       0.76809    1.13780    0.48758   1.00
H2       0.78048    1.12477    0.53549   1.00
H2       0.70125    1.12543    0.46109   1.00
H2       0.69574    1.07873    0.48120   1.00
H2       0.66122    1.11566    0.49114   1.00
H2       0.60202    1.09360    0.61110   1.00
H2       0.64435    1.06593    0.61932   1.00
H2       0.64035    1.11335    0.63930   1.00
H2       0.64416    1.16838    0.54356   1.00
H2       0.60212    1.15255    0.56821   1.00
H2       0.64085    1.17335    0.59496   1.00
H2       0.78656    1.12006    0.60311   1.00
H2       0.77381    1.14263    0.64774   1.00
H2       0.75834    1.09497    0.63784   1.00
H2       0.74044    1.19931    0.62099   1.00
H2       0.75622    1.18513    0.57407   1.00
H2       0.70657    1.19618    0.58280   1.00
C4       0.50302    0.72916    0.50040   1.00
C4       0.50259    0.77088    0.49981   1.00
C3       0.53442    0.70636    0.48589   1.00
C3       0.53182    0.79384    0.48150   1.00
C3       0.47009    0.70877    0.51575   1.00
C3       0.47140    0.79114    0.51857   1.00
C2       0.50083    0.64488    0.50087   1.00
C2       0.49917    0.85512    0.49913   1.00
C3       0.53329    0.66538    0.48590   1.00
C3       0.53038    0.83481    0.48147   1.00
C3       0.46983    0.66742    0.51617   1.00
C3       0.46961    0.83238    0.51676   1.00
H1       0.55910    0.71885    0.47501   1.00
H1       0.55490    0.78148    0.46743   1.00
C5       0.43773    0.72980    0.53074   1.00
C5       0.44197    0.77020    0.53872   1.00
H1       0.55675    0.65045    0.47476   1.00
H1       0.55251    0.84990    0.46806   1.00
H1       0.44649    0.65320    0.52826   1.00
H1       0.44582    0.84632    0.52816   1.00
O3       0.40360    0.71039    0.53942   1.00
O3       0.41615    0.78901    0.56335   1.00
Si1      0.36900    0.70753    0.50678   1.00
Si1      0.42918    0.79721    0.60841   1.00
C6       0.33877    0.67462    0.53241   1.00
C6       0.34724    0.75402    0.50331   1.00
C6       0.38480    0.68747    0.46204   1.00
C6       0.47658    0.78307    0.62309   1.00
C6       0.42440    0.84802    0.61283   1.00
C6       0.39393    0.77523    0.63868   1.00
C6       0.35968    0.63806    0.55028   1.00
H2       0.32950    0.69209    0.55741   1.00
C6       0.30017    0.65853    0.51369   1.00
H2       0.35361    0.76642    0.53193   1.00
C6       0.36408    0.78366    0.47294   1.00
C6       0.30188    0.75664    0.49863   1.00
H2       0.40098    0.66169    0.47158   1.00
C6       0.35259    0.67228    0.43335   1.00
C6       0.41323    0.71151    0.43524   1.00
C6       0.48844    0.73929    0.61808   1.00
C6       0.51264    0.80775    0.60967   1.00
H2       0.47559    0.78788    0.65456   1.00
H2       0.44811    0.85949    0.59494   1.00
C6       0.38623    0.86622    0.59550   1.00
C6       0.42972    0.86607    0.65441   1.00
H2       0.36999    0.79625    0.63919   1.00
C6       0.37537    0.73664    0.62332   1.00
C6       0.40487    0.76756    0.68239   1.00
H2       0.38379    0.64654    0.56933   1.00
H2       0.37135    0.61910    0.52744   1.00
H2       0.33960    0.62083    0.56810   1.00
H2       0.27815    0.65392    0.53632   1.00
H2       0.28771    0.67822    0.49217   1.00
H2       0.30449    0.63036    0.49942   1.00
H2       0.35402    0.81328    0.47929   1.00
H2       0.39580    0.78468    0.47357   1.00
H2       0.35466    0.77648    0.44337   1.00
H2       0.28685    0.74138    0.52220   1.00
H2       0.29182    0.78692    0.49984   1.00
H2       0.29247    0.74450    0.47070   1.00
H2       0.33089    0.69486    0.42742   1.00
H2       0.36485    0.66292    0.40539   1.00
H2       0.33794    0.64668    0.44496   1.00
H2       0.39752    0.73098    0.41553   1.00
H2       0.43375    0.72932    0.45138   1.00
H2       0.43049    0.69172    0.41709   1.00
H2       0.49848    0.73312    0.58856   1.00
H2       0.51242    0.73191    0.63780   1.00
H2       0.46451    0.71952    0.62477   1.00
H2       0.53891    0.79875    0.62543   1.00
H2       0.51880    0.80426    0.57873   1.00
H2       0.50886    0.83878    0.61566   1.00
H2       0.38890    0.89798    0.59360   1.00
H2       0.38068    0.85565    0.56593   1.00
H2       0.36070    0.85965    0.61335   1.00
H2       0.45644    0.85584    0.66838   1.00
H2       0.43179    0.89788    0.65255   1.00
H2       0.40504    0.85915    0.67335   1.00
H2       0.39689    0.71344    0.62006   1.00
H2       0.35226    0.72619    0.64263   1.00
H2       0.36216    0.74166    0.59497   1.00
H2       0.37901    0.75956    0.69931   1.00
H2       0.42593    0.74378    0.68513   1.00
H2       0.41720    0.79343    0.69618   1.00
C4       0.50040    1.00302    0.22916   1.00
C4       0.49981    1.00259    0.27088   1.00
C3       0.48589    1.03442    0.20636   1.00
C3       0.48150    1.03182    0.29384   1.00
C3       0.51575    0.97009    0.20877   1.00
C3       0.51857    0.97140    0.29114   1.00
C2       0.50087    1.00083    0.14488   1.00
C2       0.49913    0.99917    0.35512   1.00
C3       0.48590    1.03329    0.16538   1.00
C3       0.48147    1.03038    0.33481   1.00
C3       0.51617    0.96983    0.16742   1.00
C3       0.51676    0.96961    0.33238   1.00
H1       0.47501    1.05910    0.21885   1.00
H1       0.46743    1.05490    0.28148   1.00
C5       0.53074    0.93773    0.22980   1.00
C5       0.53872    0.94197    0.27020   1.00
H1       0.47476    1.05675    0.15045   1.00
H1       0.46806    1.05251    0.34990   1.00
H1       0.52826    0.94649    0.15320   1.00
H1       0.52816    0.94582    0.34632   1.00
O3       0.53942    0.90360    0.21039   1.00
O3       0.56335    0.91615    0.28901   1.00
Si1      0.50678    0.86900    0.20753   1.00
Si1      0.60841    0.92918    0.29721   1.00
C6       0.53241    0.83877    0.17462   1.00
C6       0.50331    0.84724    0.25402   1.00
C6       0.46204    0.88480    0.18747   1.00
C6       0.62309    0.97658    0.28307   1.00
C6       0.61283    0.92440    0.34802   1.00
C6       0.63868    0.89393    0.27523   1.00
C6       0.55028    0.85968    0.13806   1.00
H2       0.55741    0.82950    0.19209   1.00
C6       0.51369    0.80017    0.15853   1.00
H2       0.53193    0.85361    0.26642   1.00
C6       0.47294    0.86408    0.28366   1.00
C6       0.49863    0.80188    0.25664   1.00
H2       0.47158    0.90098    0.16169   1.00
C6       0.43335    0.85259    0.17228   1.00
C6       0.43524    0.91323    0.21151   1.00
C6       0.61808    0.98844    0.23929   1.00
C6       0.60967    1.01264    0.30775   1.00
H2       0.65456    0.97559    0.28788   1.00
H2       0.59494    0.94811    0.35949   1.00
C6       0.59550    0.88623    0.36622   1.00
C6       0.65441    0.92972    0.36607   1.00
H2       0.63919    0.86999    0.29625   1.00
C6       0.62332    0.87537    0.23664   1.00
C6       0.68239    0.90487    0.26756   1.00
H2       0.56933    0.88379    0.14654   1.00
H2       0.52744    0.87135    0.11910   1.00
H2       0.56810    0.83960    0.12083   1.00
H2       0.53632    0.77815    0.15392   1.00
H2       0.49217    0.78771    0.17822   1.00
H2       0.49942    0.80449    0.13036   1.00
H2       0.47929    0.85402    0.31328   1.00
H2       0.47357    0.89580    0.28468   1.00
H2       0.44337    0.85466    0.27648   1.00
H2       0.52220    0.78685    0.24138   1.00
H2       0.49984    0.79182    0.28692   1.00
H2       0.47070    0.79247    0.24450   1.00
H2       0.42742    0.83089    0.19486   1.00
H2       0.40539    0.86485    0.16292   1.00
H2       0.44496    0.83794    0.14668   1.00
H2       0.41553    0.89752    0.23098   1.00
H2       0.45138    0.93375    0.22932   1.00
H2       0.41709    0.93049    0.19172   1.00
H2       0.58856    0.99848    0.23312   1.00
H2       0.63780    1.01242    0.23191   1.00
H2       0.62477    0.96451    0.21952   1.00
H2       0.62543    1.03891    0.29875   1.00
H2       0.57873    1.01880    0.30426   1.00
H2       0.61566    1.00886    0.33878   1.00
H2       0.59360    0.88890    0.39798   1.00
H2       0.56593    0.88068    0.35565   1.00
H2       0.61335    0.86070    0.35965   1.00
H2       0.66838    0.95644    0.35584   1.00
H2       0.65255    0.93179    0.39788   1.00
H2       0.67335    0.90504    0.35915   1.00
H2       0.62006    0.89689    0.21344   1.00
H2       0.64263    0.85226    0.22619   1.00
H2       0.59497    0.86216    0.24166   1.00
H2       0.69931    0.87901    0.25956   1.00
H2       0.68513    0.92593    0.24378   1.00
H2       0.69618    0.91720    0.29343   1.00
C4       1.00040    0.49698    0.77084   1.00
C4       0.99981    0.49741    0.72912   1.00
C3       0.98589    0.46558    0.79364   1.00
C3       0.98150    0.46818    0.70616   1.00
C3       1.01575    0.52991    0.79123   1.00
C3       1.01857    0.52860    0.70886   1.00
C2       1.00087    0.49917    0.85512   1.00
C2       0.99913    0.50083    0.64488   1.00
C3       0.98590    0.46671    0.83462   1.00
C3       0.98147    0.46962    0.66519   1.00
C3       1.01617    0.53017    0.83258   1.00
C3       1.01676    0.53039    0.66762   1.00
H1       0.97501    0.44090    0.78115   1.00
H1       0.96743    0.44510    0.71852   1.00
C5       1.03074    0.56227    0.77020   1.00
C5       1.03872    0.55803    0.72980   1.00
H1       0.97476    0.44325    0.84955   1.00
H1       0.96806    0.44749    0.65010   1.00
H1       1.02826    0.55351    0.84680   1.00
H1       1.02816    0.55418    0.65368   1.00
O3       1.03942    0.59640    0.78961   1.00
O3       1.06335    0.58385    0.71099   1.00
Si1      1.00678    0.63100    0.79247   1.00
Si1      1.10841    0.57082    0.70279   1.00
C6       1.03241    0.66123    0.82538   1.00
C6       1.00331    0.65276    0.74598   1.00
C6       0.96204    0.61520    0.81253   1.00
C6       1.12309    0.52342    0.71693   1.00
C6       1.11283    0.57560    0.65198   1.00
C6       1.13868    0.60607    0.72477   1.00
C6       1.05028    0.64032    0.86194   1.00
H2       1.05741    0.67050    0.80791   1.00
C6       1.01369    0.69983    0.84147   1.00
H2       1.03193    0.64639    0.73358   1.00
C6       0.97294    0.63592    0.71634   1.00
C6       0.99863    0.69812    0.74336   1.00
H2       0.97158    0.59902    0.83831   1.00
C6       0.93335    0.64741    0.82772   1.00
C6       0.93524    0.58677    0.78849   1.00
C6       1.11808    0.51156    0.76071   1.00
C6       1.10967    0.48736    0.69225   1.00
H2       1.15456    0.52441    0.71212   1.00
H2       1.09494    0.55189    0.64051   1.00
C6       1.09550    0.61377    0.63378   1.00
C6       1.15441    0.57028    0.63393   1.00
H2       1.13919    0.63001    0.70375   1.00
C6       1.12332    0.62463    0.76336   1.00
C6       1.18239    0.59513    0.73244   1.00
H2       1.06933    0.61621    0.85346   1.00
H2       1.02744    0.62865    0.88090   1.00
H2       1.06810    0.66040    0.87917   1.00
H2       1.03632    0.72185    0.84608   1.00
H2       0.99217    0.71229    0.82178   1.00
H2       0.99942    0.69551    0.86964   1.00
H2       0.97929    0.64598    0.68672   1.00
H2       0.97357    0.60420    0.71532   1.00
H2       0.94337    0.64534    0.72352   1.00
H2       1.02220    0.71315    0.75862   1.00
H2       0.99984    0.70818    0.71308   1.00
H2       0.97070    0.70753    0.75550   1.00
H2       0.92742    0.66911    0.80514   1.00
H2       0.90539    0.63515    0.83708   1.00
H2       0.94496    0.66206    0.85332   1.00
H2       0.91553    0.60248    0.76902   1.00
H2       0.95138    0.56625    0.77068   1.00
H2       0.91709    0.56951    0.80828   1.00
H2       1.08856    0.50152    0.76688   1.00
H2       1.13780    0.48758    0.76809   1.00
H2       1.12477    0.53549    0.78048   1.00
H2       1.12543    0.46109    0.70125   1.00
H2       1.07873    0.48120    0.69574   1.00
H2       1.11566    0.49114    0.66122   1.00
H2       1.09360    0.61110    0.60202   1.00
H2       1.06593    0.61932    0.64435   1.00
H2       1.11335    0.63930    0.64035   1.00
H2       1.16838    0.54356    0.64416   1.00
H2       1.15255    0.56821    0.60212   1.00
H2       1.17335    0.59496    0.64085   1.00
H2       1.12006    0.60311    0.78656   1.00
H2       1.14263    0.64774    0.77381   1.00
H2       1.09497    0.63784    0.75834   1.00
H2       1.19931    0.62099    0.74044   1.00
H2       1.18513    0.57407    0.75622   1.00
H2       1.19618    0.58280    0.70657   1.00
C4       0.99698    0.77084    0.50040   1.00
C4       0.99741    0.72912    0.49981   1.00
C3       0.96558    0.79364    0.48589   1.00
C3       0.96818    0.70616    0.48150   1.00
C3       1.02991    0.79123    0.51575   1.00
C3       1.02860    0.70886    0.51857   1.00
C2       0.99917    0.85512    0.50087   1.00
C2       1.00083    0.64488    0.49913   1.00
C3       0.96671    0.83462    0.48590   1.00
C3       0.96962    0.66519    0.48147   1.00
C3       1.03017    0.83258    0.51617   1.00
C3       1.03039    0.66762    0.51676   1.00
H1       0.94090    0.78115    0.47501   1.00
H1       0.94510    0.71852    0.46743   1.00
C5       1.06227    0.77020    0.53074   1.00
C5       1.05803    0.72980    0.53872   1.00
H1       0.94325    0.84955    0.47476   1.00
H1       0.94749    0.65010    0.46806   1.00
H1       1.05351    0.84680    0.52826   1.00
H1       1.05418    0.65368    0.52816   1.00
O3       1.09640    0.78961    0.53942   1.00
O3       1.08385    0.71099    0.56335   1.00
Si1      1.13100    0.79247    0.50678   1.00
Si1      1.07082    0.70279    0.60841   1.00
C6       1.16123    0.82538    0.53241   1.00
C6       1.15276    0.74598    0.50331   1.00
C6       1.11520    0.81253    0.46204   1.00
C6       1.02342    0.71693    0.62309   1.00
C6       1.07560    0.65198    0.61283   1.00
C6       1.10607    0.72477    0.63868   1.00
C6       1.14032    0.86194    0.55028   1.00
H2       1.17050    0.80791    0.55741   1.00
C6       1.19983    0.84147    0.51369   1.00
H2       1.14639    0.73358    0.53193   1.00
C6       1.13592    0.71634    0.47294   1.00
C6       1.19812    0.74336    0.49863   1.00
H2       1.09902    0.83831    0.47158   1.00
C6       1.14741    0.82772    0.43335   1.00
C6       1.08677    0.78849    0.43524   1.00
C6       1.01156    0.76071    0.61808   1.00
C6       0.98736    0.69225    0.60967   1.00
H2       1.02441    0.71212    0.65456   1.00
H2       1.05189    0.64051    0.59494   1.00
C6       1.11377    0.63378    0.59550   1.00
C6       1.07028    0.63393    0.65441   1.00
H2       1.13001    0.70375    0.63919   1.00
C6       1.12463    0.76336    0.62332   1.00
C6       1.09513    0.73244    0.68239   1.00
H2       1.11621    0.85346    0.56933   1.00
H2       1.12865    0.88090    0.52744   1.00
H2       1.16040    0.87917    0.56810   1.00
H2       1.22185    0.84608    0.53632   1.00
H2       1.21229    0.82178    0.49217   1.00
H2       1.19551    0.86964    0.49942   1.00
H2       1.14598    0.68672    0.47929   1.00
H2       1.10420    0.71532    0.47357   1.00
H2       1.14534    0.72352    0.44337   1.00
H2       1.21315    0.75862    0.52220   1.00
H2       1.20818    0.71308    0.49984   1.00
H2       1.20753    0.75550    0.47070   1.00
H2       1.16911    0.80514    0.42742   1.00
H2       1.13515    0.83708    0.40539   1.00
H2       1.16206    0.85332    0.44496   1.00
H2       1.10248    0.76902    0.41553   1.00
H2       1.06625    0.77068    0.45138   1.00
H2       1.06951    0.80828    0.41709   1.00
H2       1.00152    0.76688    0.58856   1.00
H2       0.98758    0.76809    0.63780   1.00
H2       1.03549    0.78048    0.62477   1.00
H2       0.96109    0.70125    0.62543   1.00
H2       0.98120    0.69574    0.57873   1.00
H2       0.99114    0.66122    0.61566   1.00
H2       1.11110    0.60202    0.59360   1.00
H2       1.11932    0.64435    0.56593   1.00
H2       1.13930    0.64035    0.61335   1.00
H2       1.04356    0.64416    0.66838   1.00
H2       1.06821    0.60212    0.65255   1.00
H2       1.09496    0.64085    0.67335   1.00
H2       1.10311    0.78656    0.62006   1.00
H2       1.14774    0.77381    0.64263   1.00
H2       1.13784    0.75834    0.59497   1.00
H2       1.12099    0.74044    0.69931   1.00
H2       1.07407    0.75622    0.68513   1.00
H2       1.08280    0.70657    0.69618   1.00
C4       0.72916    0.50040    0.50302   1.00
C4       0.77088    0.49981    0.50259   1.00
C3       0.70636    0.48589    0.53442   1.00
C3       0.79384    0.48150    0.53182   1.00
C3       0.70877    0.51575    0.47009   1.00
C3       0.79114    0.51857    0.47140   1.00
C2       0.64488    0.50087    0.50083   1.00
C2       0.85512    0.49913    0.49917   1.00
C3       0.66538    0.48590    0.53329   1.00
C3       0.83481    0.48147    0.53038   1.00
C3       0.66742    0.51617    0.46983   1.00
C3       0.83238    0.51676    0.46961   1.00
H1       0.71885    0.47501    0.55910   1.00
H1       0.78148    0.46743    0.55490   1.00
C5       0.72980    0.53074    0.43773   1.00
C5       0.77020    0.53872    0.44197   1.00
H1       0.65045    0.47476    0.55675   1.00
H1       0.84990    0.46806    0.55251   1.00
H1       0.65320    0.52826    0.44649   1.00
H1       0.84632    0.52816    0.44582   1.00
O3       0.71039    0.53942    0.40360   1.00
O3       0.78901    0.56335    0.41615   1.00
Si1      0.70753    0.50678    0.36900   1.00
Si1      0.79721    0.60841    0.42918   1.00
C6       0.67462    0.53241    0.33877   1.00
C6       0.75402    0.50331    0.34724   1.00
C6       0.68747    0.46204    0.38480   1.00
C6       0.78307    0.62309    0.47658   1.00
C6       0.84802    0.61283    0.42440   1.00
C6       0.77523    0.63868    0.39393   1.00
C6       0.63806    0.55028    0.35968   1.00
H2       0.69209    0.55741    0.32950   1.00
C6       0.65853    0.51369    0.30017   1.00
H2       0.76642    0.53193    0.35361   1.00
C6       0.78366    0.47294    0.36408   1.00
C6       0.75664    0.49863    0.30188   1.00
H2       0.66169    0.47158    0.40098   1.00
C6       0.67228    0.43335    0.35259   1.00
C6       0.71151    0.43524    0.41323   1.00
C6       0.73929    0.61808    0.48844   1.00
C6       0.80775    0.60967    0.51264   1.00
H2       0.78788    0.65456    0.47559   1.00
H2       0.85949    0.59494    0.44811   1.00
C6       0.86622    0.59550    0.38623   1.00
C6       0.86607    0.65441    0.42972   1.00
H2       0.79625    0.63919    0.36999   1.00
C6       0.73664    0.62332    0.37537   1.00
C6       0.76756    0.68239    0.40487   1.00
H2       0.64654    0.56933    0.38379   1.00
H2       0.61910    0.52744    0.37135   1.00
H2       0.62083    0.56810    0.33960   1.00
H2       0.65392    0.53632    0.27815   1.00
H2       0.67822    0.49217    0.28771   1.00
H2       0.63036    0.49942    0.30449   1.00
H2       0.81328    0.47929    0.35402   1.00
H2       0.78468    0.47357    0.39580   1.00
H2       0.77648    0.44337    0.35466   1.00
H2       0.74138    0.52220    0.28685   1.00
H2       0.78692    0.49984    0.29182   1.00
H2       0.74450    0.47070    0.29247   1.00
H2       0.69486    0.42742    0.33089   1.00
H2       0.66292    0.40539    0.36485   1.00
H2       0.64668    0.44496    0.33794   1.00
H2       0.73098    0.41553    0.39752   1.00
H2       0.72932    0.45138    0.43375   1.00
H2       0.69172    0.41709    0.43049   1.00
H2       0.73312    0.58856    0.49848   1.00
H2       0.73191    0.63780    0.51242   1.00
H2       0.71952    0.62477    0.46451   1.00
H2       0.79875    0.62543    0.53891   1.00
H2       0.80426    0.57873    0.51880   1.00
H2       0.83878    0.61566    0.50886   1.00
H2       0.89798    0.59360    0.38890   1.00
H2       0.85565    0.56593    0.38068   1.00
H2       0.85965    0.61335    0.36070   1.00
H2       0.85584    0.66838    0.45644   1.00
H2       0.89788    0.65255    0.43179   1.00
H2       0.85915    0.67335    0.40504   1.00
H2       0.71344    0.62006    0.39689   1.00
H2       0.72619    0.64263    0.35226   1.00
H2       0.74166    0.59497    0.36216   1.00
H2       0.75956    0.69931    0.37901   1.00
H2       0.74378    0.68513    0.42593   1.00
H2       0.79343    0.69618    0.41720   1.00
C4       1.27084    0.50040    0.49698   1.00
C4       1.22912    0.49981    0.49741   1.00
C3       1.29364    0.48589    0.46558   1.00
C3       1.20616    0.48150    0.46818   1.00
C3       1.29123    0.51575    0.52991   1.00
C3       1.20886    0.51857    0.52860   1.00
C2       1.35512    0.50087    0.49917   1.00
C2       1.14488    0.49913    0.50083   1.00
C3       1.33462    0.48590    0.46671   1.00
C3       1.16519    0.48147    0.46962   1.00
C3       1.33258    0.51617    0.53017   1.00
C3       1.16762    0.51676    0.53039   1.00
H1       1.28115    0.47501    0.44090   1.00
H1       1.21852    0.46743    0.44510   1.00
C5       1.27020    0.53074    0.56227   1.00
C5       1.22980    0.53872    0.55803   1.00
H1       1.34955    0.47476    0.44325   1.00
H1       1.15010    0.46806    0.44749   1.00
H1       1.34680    0.52826    0.55351   1.00
H1       1.15368    0.52816    0.55418   1.00
O3       1.28961    0.53942    0.59640   1.00
O3       1.21099    0.56335    0.58385   1.00
Si1      1.29247    0.50678    0.63100   1.00
Si1      1.20279    0.60841    0.57082   1.00
C6       1.32538    0.53241    0.66123   1.00
C6       1.24598    0.50331    0.65276   1.00
C6       1.31253    0.46204    0.61520   1.00
C6       1.21693    0.62309    0.52342   1.00
C6       1.15198    0.61283    0.57560   1.00
C6       1.22477    0.63868    0.60607   1.00
C6       1.36194    0.55028    0.64032   1.00
H2       1.30791    0.55741    0.67050   1.00
C6       1.34147    0.51369    0.69983   1.00
H2       1.23358    0.53193    0.64639   1.00
C6       1.21634    0.47294    0.63592   1.00
C6       1.24336    0.49863    0.69812   1.00
H2       1.33831    0.47158    0.59902   1.00
C6       1.32772    0.43335    0.64741   1.00
C6       1.28849    0.43524    0.58677   1.00
C6       1.26071    0.61808    0.51156   1.00
C6       1.19225    0.60967    0.48736   1.00
H2       1.21212    0.65456    0.52441   1.00
H2       1.14051    0.59494    0.55189   1.00
C6       1.13378    0.59550    0.61377   1.00
C6       1.13393    0.65441    0.57028   1.00
H2       1.20375    0.63919    0.63001   1.00
C6       1.26336    0.62332    0.62463   1.00
C6       1.23244    0.68239    0.59513   1.00
H2       1.35346    0.56933    0.61621   1.00
H2       1.38090    0.52744    0.62865   1.00
H2       1.37917    0.56810    0.66040   1.00
H2       1.34608    0.53632    0.72185   1.00
H2       1.32178    0.49217    0.71229   1.00
H2       1.36964    0.49942    0.69551   1.00
H2       1.18672    0.47929    0.64598   1.00
H2       1.21532    0.47357    0.60420   1.00
H2       1.22352    0.44337    0.64534   1.00
H2       1.25862    0.52220    0.71315   1.00
H2       1.21308    0.49984    0.70818   1.00
H2       1.25550    0.47070    0.70753   1.00
H2       1.30514    0.42742    0.66911   1.00
H2       1.33708    0.40539    0.63515   1.00
H2       1.35332    0.44496    0.66206   1.00
H2       1.26902    0.41553    0.60248   1.00
H2       1.27068    0.45138    0.56625   1.00
H2       1.30828    0.41709    0.56951   1.00
H2       1.26688    0.58856    0.50152   1.00
H2       1.26809    0.63780    0.48758   1.00
H2       1.28048    0.62477    0.53549   1.00
H2       1.20125    0.62543    0.46109   1.00
H2       1.19574    0.57873    0.48120   1.00
H2       1.16122    0.61566    0.49114   1.00
H2       1.10202    0.59360    0.61110   1.00
H2       1.14435    0.56593    0.61932   1.00
H2       1.14035    0.61335    0.63930   1.00
H2       1.14416    0.66838    0.54356   1.00
H2       1.10212    0.65255    0.56821   1.00
H2       1.14085    0.67335    0.59496   1.00
H2       1.28656    0.62006    0.60311   1.00
H2       1.27381    0.64263    0.64774   1.00
H2       1.25834    0.59497    0.63784   1.00
H2       1.24044    0.69931    0.62099   1.00
H2       1.25622    0.68513    0.57407   1.00
H2       1.20657    0.69618    0.58280   1.00
C4       1.00302    0.22916    0.50040   1.00
C4       1.00259    0.27088    0.49981   1.00
C3       1.03442    0.20636    0.48589   1.00
C3       1.03182    0.29384    0.48150   1.00
C3       0.97009    0.20877    0.51575   1.00
C3       0.97140    0.29114    0.51857   1.00
C2       1.00083    0.14488    0.50087   1.00
C2       0.99917    0.35512    0.49913   1.00
C3       1.03329    0.16538    0.48590   1.00
C3       1.03038    0.33481    0.48147   1.00
C3       0.96983    0.16742    0.51617   1.00
C3       0.96961    0.33238    0.51676   1.00
H1       1.05910    0.21885    0.47501   1.00
H1       1.05490    0.28148    0.46743   1.00
C5       0.93773    0.22980    0.53074   1.00
C5       0.94197    0.27020    0.53872   1.00
H1       1.05675    0.15045    0.47476   1.00
H1       1.05251    0.34990    0.46806   1.00
H1       0.94649    0.15320    0.52826   1.00
H1       0.94582    0.34632    0.52816   1.00
O3       0.90360    0.21039    0.53942   1.00
O3       0.91615    0.28901    0.56335   1.00
Si1      0.86900    0.20753    0.50678   1.00
Si1      0.92918    0.29721    0.60841   1.00
C6       0.83877    0.17462    0.53241   1.00
C6       0.84724    0.25402    0.50331   1.00
C6       0.88480    0.18747    0.46204   1.00
C6       0.97658    0.28307    0.62309   1.00
C6       0.92440    0.34802    0.61283   1.00
C6       0.89393    0.27523    0.63868   1.00
C6       0.85968    0.13806    0.55028   1.00
H2       0.82950    0.19209    0.55741   1.00
C6       0.80017    0.15853    0.51369   1.00
H2       0.85361    0.26642    0.53193   1.00
C6       0.86408    0.28366    0.47294   1.00
C6       0.80188    0.25664    0.49863   1.00
H2       0.90098    0.16169    0.47158   1.00
C6       0.85259    0.17228    0.43335   1.00
C6       0.91323    0.21151    0.43524   1.00
C6       0.98844    0.23929    0.61808   1.00
C6       1.01264    0.30775    0.60967   1.00
H2       0.97559    0.28788    0.65456   1.00
H2       0.94811    0.35949    0.59494   1.00
C6       0.88623    0.36622    0.59550   1.00
C6       0.92972    0.36607    0.65441   1.00
H2       0.86999    0.29625    0.63919   1.00
C6       0.87537    0.23664    0.62332   1.00
C6       0.90487    0.26756    0.68239   1.00
H2       0.88379    0.14654    0.56933   1.00
H2       0.87135    0.11910    0.52744   1.00
H2       0.83960    0.12083    0.56810   1.00
H2       0.77815    0.15392    0.53632   1.00
H2       0.78771    0.17822    0.49217   1.00
H2       0.80449    0.13036    0.49942   1.00
H2       0.85402    0.31328    0.47929   1.00
H2       0.89580    0.28468    0.47357   1.00
H2       0.85466    0.27648    0.44337   1.00
H2       0.78685    0.24138    0.52220   1.00
H2       0.79182    0.28692    0.49984   1.00
H2       0.79247    0.24450    0.47070   1.00
H2       0.83089    0.19486    0.42742   1.00
H2       0.86485    0.16292    0.40539   1.00
H2       0.83794    0.14668    0.44496   1.00
H2       0.89752    0.23098    0.41553   1.00
H2       0.93375    0.22932    0.45138   1.00
H2       0.93049    0.19172    0.41709   1.00
H2       0.99848    0.23312    0.58856   1.00
H2       1.01242    0.23191    0.63780   1.00
H2       0.96451    0.21952    0.62477   1.00
H2       1.03891    0.29875    0.62543   1.00
H2       1.01880    0.30426    0.57873   1.00
H2       1.00886    0.33878    0.61566   1.00
H2       0.88890    0.39798    0.59360   1.00
H2       0.88068    0.35565    0.56593   1.00
H2       0.86070    0.35965    0.61335   1.00
H2       0.95644    0.35584    0.66838   1.00
H2       0.93179    0.39788    0.65255   1.00
H2       0.90504    0.35915    0.67335   1.00
H2       0.89689    0.21344    0.62006   1.00
H2       0.85226    0.22619    0.64263   1.00
H2       0.86216    0.24166    0.59497   1.00
H2       0.87901    0.25956    0.69931   1.00
H2       0.92593    0.24378    0.68513   1.00
H2       0.91720    0.29343    0.69618   1.00
C4       1.00040    0.50302    0.22916   1.00
C4       0.99981    0.50259    0.27088   1.00
C3       0.98589    0.53442    0.20636   1.00
C3       0.98150    0.53182    0.29384   1.00
C3       1.01575    0.47009    0.20877   1.00
C3       1.01857    0.47140    0.29114   1.00
C2       1.00087    0.50083    0.14488   1.00
C2       0.99913    0.49917    0.35512   1.00
C3       0.98590    0.53329    0.16538   1.00
C3       0.98147    0.53038    0.33481   1.00
C3       1.01617    0.46983    0.16742   1.00
C3       1.01676    0.46961    0.33238   1.00
H1       0.97501    0.55910    0.21885   1.00
H1       0.96743    0.55490    0.28148   1.00
C5       1.03074    0.43773    0.22980   1.00
C5       1.03872    0.44197    0.27020   1.00
H1       0.97476    0.55675    0.15045   1.00
H1       0.96806    0.55251    0.34990   1.00
H1       1.02826    0.44649    0.15320   1.00
H1       1.02816    0.44582    0.34632   1.00
O3       1.03942    0.40360    0.21039   1.00
O3       1.06335    0.41615    0.28901   1.00
Si1      1.00678    0.36900    0.20753   1.00
Si1      1.10841    0.42918    0.29721   1.00
C6       1.03241    0.33877    0.17462   1.00
C6       1.00331    0.34724    0.25402   1.00
C6       0.96204    0.38480    0.18747   1.00
C6       1.12309    0.47658    0.28307   1.00
C6       1.11283    0.42440    0.34802   1.00
C6       1.13868    0.39393    0.27523   1.00
C6       1.05028    0.35968    0.13806   1.00
H2       1.05741    0.32950    0.19209   1.00
C6       1.01369    0.30017    0.15853   1.00
H2       1.03193    0.35361    0.26642   1.00
C6       0.97294    0.36408    0.28366   1.00
C6       0.99863    0.30188    0.25664   1.00
H2       0.97158    0.40098    0.16169   1.00
C6       0.93335    0.35259    0.17228   1.00
C6       0.93524    0.41323    0.21151   1.00
C6       1.11808    0.48844    0.23929   1.00
C6       1.10967    0.51264    0.30775   1.00
H2       1.15456    0.47559    0.28788   1.00
H2       1.09494    0.44811    0.35949   1.00
C6       1.09550    0.38623    0.36622   1.00
C6       1.15441    0.42972    0.36607   1.00
H2       1.13919    0.36999    0.29625   1.00
C6       1.12332    0.37537    0.23664   1.00
C6       1.18239    0.40487    0.26756   1.00
H2       1.06933    0.38379    0.14654   1.00
H2       1.02744    0.37135    0.11910   1.00
H2       1.06810    0.33960    0.12083   1.00
H2       1.03632    0.27815    0.15392   1.00
H2       0.99217    0.28771    0.17822   1.00
H2       0.99942    0.30449    0.13036   1.00
H2       0.97929    0.35402    0.31328   1.00
H2       0.97357    0.39580    0.28468   1.00
H2       0.94337    0.35466    0.27648   1.00
H2       1.02220    0.28685    0.24138   1.00
H2       0.99984    0.29182    0.28692   1.00
H2       0.97070    0.29247    0.24450   1.00
H2       0.92742    0.33089    0.19486   1.00
H2       0.90539    0.36485    0.16292   1.00
H2       0.94496    0.33794    0.14668   1.00
H2       0.91553    0.39752    0.23098   1.00
H2       0.95138    0.43375    0.22932   1.00
H2       0.91709    0.43049    0.19172   1.00
H2       1.08856    0.49848    0.23312   1.00
H2       1.13780    0.51242    0.23191   1.00
H2       1.12477    0.46451    0.21952   1.00
H2       1.12543    0.53891    0.29875   1.00
H2       1.07873    0.51880    0.30426   1.00
H2       1.11566    0.50886    0.33878   1.00
H2       1.09360    0.38890    0.39798   1.00
H2       1.06593    0.38068    0.35565   1.00
H2       1.11335    0.36070    0.35965   1.00
H2       1.16838    0.45644    0.35584   1.00
H2       1.15255    0.43179    0.39788   1.00
H2       1.17335    0.40504    0.35915   1.00
H2       1.12006    0.39689    0.21344   1.00
H2       1.14263    0.35226    0.22619   1.00
H2       1.09497    0.36216    0.24166   1.00
H2       1.19931    0.37901    0.25956   1.00
H2       1.18513    0.42593    0.24378   1.00
H2       1.19618    0.41720    0.29343   1.00
