data_IRMOF10_SG202_interpen_Ligand1lp_label_c.

_audit_creation_method             'generated by an auxiliary program of Tobunporous'

_symmetry_space_group_name_H-M     'P 1'
_symmetry_Int_Tables_number        1
_symmetry_cell_setting             triclinic

_cell_length_a                    34.2800
_cell_length_b                    34.2800
_cell_length_c                    34.2800
_cell_angle_alpha                 90.0000
_cell_angle_beta                  90.0000
_cell_angle_gamma                 90.0000

loop_
_atom_site_label
_atom_site_fract_x
_atom_site_fract_y
_atom_site_fract_z
_atom_site_occupancy
O1       0.75000    0.75000    0.75000   1.00
Zn1      0.71720    0.78280    0.78280   1.00
Zn1      0.78280    0.71720    0.78280   1.00
Zn1      0.78280    0.78280    0.71720   1.00
Zn1      0.71720    0.71720    0.71720   1.00
O2       0.72650    0.77350    0.83820   1.00
O2       0.72650    0.83820    0.77350   1.00
O2       0.66180    0.77350    0.77350   1.00
O2       0.77350    0.72650    0.83820   1.00
O2       0.83820    0.72650    0.77350   1.00
O2       0.77350    0.66180    0.77350   1.00
O2       0.77350    0.83820    0.72650   1.00
O2       0.83820    0.77350    0.72650   1.00
O2       0.77350    0.77350    0.66180   1.00
O2       0.66180    0.72650    0.72650   1.00
O2       0.72650    0.66180    0.72650   1.00
O2       0.72650    0.72650    0.66180   1.00
C1       0.75000    0.75000    0.85520   1.00
C1       0.75000    0.85520    0.75000   1.00
C1       0.64480    0.75000    0.75000   1.00
C1       0.85520    0.75000    0.75000   1.00
C1       0.75000    0.64480    0.75000   1.00
C1       0.75000    0.75000    0.64480   1.00
O1       0.25000    0.25000    0.75000   1.00
Zn1      0.21720    0.28280    0.78280   1.00
Zn1      0.28280    0.21720    0.78280   1.00
Zn1      0.28280    0.28280    0.71720   1.00
Zn1      0.21720    0.21720    0.71720   1.00
O2       0.22650    0.27350    0.83820   1.00
O2       0.22650    0.33820    0.77350   1.00
O2       0.16180    0.27350    0.77350   1.00
O2       0.27350    0.22650    0.83820   1.00
O2       0.33820    0.22650    0.77350   1.00
O2       0.27350    0.16180    0.77350   1.00
O2       0.27350    0.33820    0.72650   1.00
O2       0.33820    0.27350    0.72650   1.00
O2       0.27350    0.27350    0.66180   1.00
O2       0.16180    0.22650    0.72650   1.00
O2       0.22650    0.16180    0.72650   1.00
O2       0.22650    0.22650    0.66180   1.00
C1       0.25000    0.25000    0.85520   1.00
C1       0.25000    0.35520    0.75000   1.00
C1       0.14480    0.25000    0.75000   1.00
C1       0.35520    0.25000    0.75000   1.00
C1       0.25000    0.14480    0.75000   1.00
C1       0.25000    0.25000    0.64480   1.00
O1       0.25000    0.75000    0.25000   1.00
Zn1      0.21720    0.78280    0.28280   1.00
Zn1      0.28280    0.71720    0.28280   1.00
Zn1      0.28280    0.78280    0.21720   1.00
Zn1      0.21720    0.71720    0.21720   1.00
O2       0.22650    0.77350    0.33820   1.00
O2       0.22650    0.83820    0.27350   1.00
O2       0.16180    0.77350    0.27350   1.00
O2       0.27350    0.72650    0.33820   1.00
O2       0.33820    0.72650    0.27350   1.00
O2       0.27350    0.66180    0.27350   1.00
O2       0.27350    0.83820    0.22650   1.00
O2       0.33820    0.77350    0.22650   1.00
O2       0.27350    0.77350    0.16180   1.00
O2       0.16180    0.72650    0.22650   1.00
O2       0.22650    0.66180    0.22650   1.00
O2       0.22650    0.72650    0.16180   1.00
C1       0.25000    0.75000    0.35520   1.00
C1       0.25000    0.85520    0.25000   1.00
C1       0.14480    0.75000    0.25000   1.00
C1       0.35520    0.75000    0.25000   1.00
C1       0.25000    0.64480    0.25000   1.00
C1       0.25000    0.75000    0.14480   1.00
O1       0.75000    0.25000    0.25000   1.00
Zn1      0.71720    0.28280    0.28280   1.00
Zn1      0.78280    0.21720    0.28280   1.00
Zn1      0.78280    0.28280    0.21720   1.00
Zn1      0.71720    0.21720    0.21720   1.00
O2       0.72650    0.27350    0.33820   1.00
O2       0.72650    0.33820    0.27350   1.00
O2       0.66180    0.27350    0.27350   1.00
O2       0.77350    0.22650    0.33820   1.00
O2       0.83820    0.22650    0.27350   1.00
O2       0.77350    0.16180    0.27350   1.00
O2       0.77350    0.33820    0.22650   1.00
O2       0.83820    0.27350    0.22650   1.00
O2       0.77350    0.27350    0.16180   1.00
O2       0.66180    0.22650    0.22650   1.00
O2       0.72650    0.16180    0.22650   1.00
O2       0.72650    0.22650    0.16180   1.00
C1       0.75000    0.25000    0.35520   1.00
C1       0.75000    0.35520    0.25000   1.00
C1       0.64480    0.25000    0.25000   1.00
C1       0.85520    0.25000    0.25000   1.00
C1       0.75000    0.14480    0.25000   1.00
C1       0.75000    0.25000    0.14480   1.00
O1       0.25000    0.25000    0.25000   1.00
Zn1      0.28280    0.21720    0.21720   1.00
Zn1      0.21720    0.28280    0.21720   1.00
Zn1      0.21720    0.21720    0.28280   1.00
Zn1      0.28280    0.28280    0.28280   1.00
O2       0.27350    0.22650    0.16180   1.00
O2       0.27350    0.16180    0.22650   1.00
O2       0.33820    0.22650    0.22650   1.00
O2       0.22650    0.27350    0.16180   1.00
O2       0.16180    0.27350    0.22650   1.00
O2       0.22650    0.33820    0.22650   1.00
O2       0.22650    0.16180    0.27350   1.00
O2       0.16180    0.22650    0.27350   1.00
O2       0.22650    0.22650    0.33820   1.00
O2       0.33820    0.27350    0.27350   1.00
O2       0.27350    0.33820    0.27350   1.00
O2       0.27350    0.27350    0.33820   1.00
C1       0.25000    0.25000    0.14480   1.00
C1       0.25000    0.14480    0.25000   1.00
C1       0.35520    0.25000    0.25000   1.00
C1       0.14480    0.25000    0.25000   1.00
C1       0.25000    0.35520    0.25000   1.00
C1       0.25000    0.25000    0.35520   1.00
O1       0.75000    0.75000    0.25000   1.00
Zn1      0.78280    0.71720    0.21720   1.00
Zn1      0.71720    0.78280    0.21720   1.00
Zn1      0.71720    0.71720    0.28280   1.00
Zn1      0.78280    0.78280    0.28280   1.00
O2       0.77350    0.72650    0.16180   1.00
O2       0.77350    0.66180    0.22650   1.00
O2       0.83820    0.72650    0.22650   1.00
O2       0.72650    0.77350    0.16180   1.00
O2       0.66180    0.77350    0.22650   1.00
O2       0.72650    0.83820    0.22650   1.00
O2       0.72650    0.66180    0.27350   1.00
O2       0.66180    0.72650    0.27350   1.00
O2       0.72650    0.72650    0.33820   1.00
O2       0.83820    0.77350    0.27350   1.00
O2       0.77350    0.83820    0.27350   1.00
O2       0.77350    0.77350    0.33820   1.00
C1       0.75000    0.75000    0.14480   1.00
C1       0.75000    0.64480    0.25000   1.00
C1       0.85520    0.75000    0.25000   1.00
C1       0.64480    0.75000    0.25000   1.00
C1       0.75000    0.85520    0.25000   1.00
C1       0.75000    0.75000    0.35520   1.00
O1       0.75000    0.25000    0.75000   1.00
Zn1      0.78280    0.21720    0.71720   1.00
Zn1      0.71720    0.28280    0.71720   1.00
Zn1      0.71720    0.21720    0.78280   1.00
Zn1      0.78280    0.28280    0.78280   1.00
O2       0.77350    0.22650    0.66180   1.00
O2       0.77350    0.16180    0.72650   1.00
O2       0.83820    0.22650    0.72650   1.00
O2       0.72650    0.27350    0.66180   1.00
O2       0.66180    0.27350    0.72650   1.00
O2       0.72650    0.33820    0.72650   1.00
O2       0.72650    0.16180    0.77350   1.00
O2       0.66180    0.22650    0.77350   1.00
O2       0.72650    0.22650    0.83820   1.00
O2       0.83820    0.27350    0.77350   1.00
O2       0.77350    0.33820    0.77350   1.00
O2       0.77350    0.27350    0.83820   1.00
C1       0.75000    0.25000    0.64480   1.00
C1       0.75000    0.14480    0.75000   1.00
C1       0.85520    0.25000    0.75000   1.00
C1       0.64480    0.25000    0.75000   1.00
C1       0.75000    0.35520    0.75000   1.00
C1       0.75000    0.25000    0.85520   1.00
O1       0.25000    0.75000    0.75000   1.00
Zn1      0.28280    0.71720    0.71720   1.00
Zn1      0.21720    0.78280    0.71720   1.00
Zn1      0.21720    0.71720    0.78280   1.00
Zn1      0.28280    0.78280    0.78280   1.00
O2       0.27350    0.72650    0.66180   1.00
O2       0.27350    0.66180    0.72650   1.00
O2       0.33820    0.72650    0.72650   1.00
O2       0.22650    0.77350    0.66180   1.00
O2       0.16180    0.77350    0.72650   1.00
O2       0.22650    0.83820    0.72650   1.00
O2       0.22650    0.66180    0.77350   1.00
O2       0.16180    0.72650    0.77350   1.00
O2       0.22650    0.72650    0.83820   1.00
O2       0.33820    0.77350    0.77350   1.00
O2       0.27350    0.83820    0.77350   1.00
O2       0.27350    0.77350    0.83820   1.00
C1       0.25000    0.75000    0.64480   1.00
C1       0.25000    0.64480    0.75000   1.00
C1       0.35520    0.75000    0.75000   1.00
C1       0.14480    0.75000    0.75000   1.00
C1       0.25000    0.85520    0.75000   1.00
C1       0.25000    0.75000    0.85520   1.00
O1       1.00000    1.00000    1.00000   1.00
Zn1      0.96720    1.03280    1.03280   1.00
Zn1      1.03280    0.96720    1.03280   1.00
Zn1      1.03280    1.03280    0.96720   1.00
Zn1      0.96720    0.96720    0.96720   1.00
O2       0.97650    1.02350    1.08820   1.00
O2       0.97650    1.08820    1.02350   1.00
O2       0.91180    1.02350    1.02350   1.00
O2       1.02350    0.97650    1.08820   1.00
O2       1.08820    0.97650    1.02350   1.00
O2       1.02350    0.91180    1.02350   1.00
O2       1.02350    1.08820    0.97650   1.00
O2       1.08820    1.02350    0.97650   1.00
O2       1.02350    1.02350    0.91180   1.00
O2       0.91180    0.97650    0.97650   1.00
O2       0.97650    0.91180    0.97650   1.00
O2       0.97650    0.97650    0.91180   1.00
C1       1.00000    1.00000    1.10520   1.00
C1       1.00000    1.10520    1.00000   1.00
C1       0.89480    1.00000    1.00000   1.00
C1       1.10520    1.00000    1.00000   1.00
C1       1.00000    0.89480    1.00000   1.00
C1       1.00000    1.00000    0.89480   1.00
O1       0.50000    0.50000    1.00000   1.00
Zn1      0.46720    0.53280    1.03280   1.00
Zn1      0.53280    0.46720    1.03280   1.00
Zn1      0.53280    0.53280    0.96720   1.00
Zn1      0.46720    0.46720    0.96720   1.00
O2       0.47650    0.52350    1.08820   1.00
O2       0.47650    0.58820    1.02350   1.00
O2       0.41180    0.52350    1.02350   1.00
O2       0.52350    0.47650    1.08820   1.00
O2       0.58820    0.47650    1.02350   1.00
O2       0.52350    0.41180    1.02350   1.00
O2       0.52350    0.58820    0.97650   1.00
O2       0.58820    0.52350    0.97650   1.00
O2       0.52350    0.52350    0.91180   1.00
O2       0.41180    0.47650    0.97650   1.00
O2       0.47650    0.41180    0.97650   1.00
O2       0.47650    0.47650    0.91180   1.00
C1       0.50000    0.50000    1.10520   1.00
C1       0.50000    0.60520    1.00000   1.00
C1       0.39480    0.50000    1.00000   1.00
C1       0.60520    0.50000    1.00000   1.00
C1       0.50000    0.39480    1.00000   1.00
C1       0.50000    0.50000    0.89480   1.00
O1       0.50000    1.00000    0.50000   1.00
Zn1      0.46720    1.03280    0.53280   1.00
Zn1      0.53280    0.96720    0.53280   1.00
Zn1      0.53280    1.03280    0.46720   1.00
Zn1      0.46720    0.96720    0.46720   1.00
O2       0.47650    1.02350    0.58820   1.00
O2       0.47650    1.08820    0.52350   1.00
O2       0.41180    1.02350    0.52350   1.00
O2       0.52350    0.97650    0.58820   1.00
O2       0.58820    0.97650    0.52350   1.00
O2       0.52350    0.91180    0.52350   1.00
O2       0.52350    1.08820    0.47650   1.00
O2       0.58820    1.02350    0.47650   1.00
O2       0.52350    1.02350    0.41180   1.00
O2       0.41180    0.97650    0.47650   1.00
O2       0.47650    0.91180    0.47650   1.00
O2       0.47650    0.97650    0.41180   1.00
C1       0.50000    1.00000    0.60520   1.00
C1       0.50000    1.10520    0.50000   1.00
C1       0.39480    1.00000    0.50000   1.00
C1       0.60520    1.00000    0.50000   1.00
C1       0.50000    0.89480    0.50000   1.00
C1       0.50000    1.00000    0.39480   1.00
O1       1.00000    0.50000    0.50000   1.00
Zn1      0.96720    0.53280    0.53280   1.00
Zn1      1.03280    0.46720    0.53280   1.00
Zn1      1.03280    0.53280    0.46720   1.00
Zn1      0.96720    0.46720    0.46720   1.00
O2       0.97650    0.52350    0.58820   1.00
O2       0.97650    0.58820    0.52350   1.00
O2       0.91180    0.52350    0.52350   1.00
O2       1.02350    0.47650    0.58820   1.00
O2       1.08820    0.47650    0.52350   1.00
O2       1.02350    0.41180    0.52350   1.00
O2       1.02350    0.58820    0.47650   1.00
O2       1.08820    0.52350    0.47650   1.00
O2       1.02350    0.52350    0.41180   1.00
O2       0.91180    0.47650    0.47650   1.00
O2       0.97650    0.41180    0.47650   1.00
O2       0.97650    0.47650    0.41180   1.00
C1       1.00000    0.50000    0.60520   1.00
C1       1.00000    0.60520    0.50000   1.00
C1       0.89480    0.50000    0.50000   1.00
C1       1.10520    0.50000    0.50000   1.00
C1       1.00000    0.39480    0.50000   1.00
C1       1.00000    0.50000    0.39480   1.00
O1       0.50000    0.50000    0.50000   1.00
Zn1      0.53280    0.46720    0.46720   1.00
Zn1      0.46720    0.53280    0.46720   1.00
Zn1      0.46720    0.46720    0.53280   1.00
Zn1      0.53280    0.53280    0.53280   1.00
O2       0.52350    0.47650    0.41180   1.00
O2       0.52350    0.41180    0.47650   1.00
O2       0.58820    0.47650    0.47650   1.00
O2       0.47650    0.52350    0.41180   1.00
O2       0.41180    0.52350    0.47650   1.00
O2       0.47650    0.58820    0.47650   1.00
O2       0.47650    0.41180    0.52350   1.00
O2       0.41180    0.47650    0.52350   1.00
O2       0.47650    0.47650    0.58820   1.00
O2       0.58820    0.52350    0.52350   1.00
O2       0.52350    0.58820    0.52350   1.00
O2       0.52350    0.52350    0.58820   1.00
C1       0.50000    0.50000    0.39480   1.00
C1       0.50000    0.39480    0.50000   1.00
C1       0.60520    0.50000    0.50000   1.00
C1       0.39480    0.50000    0.50000   1.00
C1       0.50000    0.60520    0.50000   1.00
C1       0.50000    0.50000    0.60520   1.00
O1       1.00000    1.00000    0.50000   1.00
Zn1      1.03280    0.96720    0.46720   1.00
Zn1      0.96720    1.03280    0.46720   1.00
Zn1      0.96720    0.96720    0.53280   1.00
Zn1      1.03280    1.03280    0.53280   1.00
O2       1.02350    0.97650    0.41180   1.00
O2       1.02350    0.91180    0.47650   1.00
O2       1.08820    0.97650    0.47650   1.00
O2       0.97650    1.02350    0.41180   1.00
O2       0.91180    1.02350    0.47650   1.00
O2       0.97650    1.08820    0.47650   1.00
O2       0.97650    0.91180    0.52350   1.00
O2       0.91180    0.97650    0.52350   1.00
O2       0.97650    0.97650    0.58820   1.00
O2       1.08820    1.02350    0.52350   1.00
O2       1.02350    1.08820    0.52350   1.00
O2       1.02350    1.02350    0.58820   1.00
C1       1.00000    1.00000    0.39480   1.00
C1       1.00000    0.89480    0.50000   1.00
C1       1.10520    1.00000    0.50000   1.00
C1       0.89480    1.00000    0.50000   1.00
C1       1.00000    1.10520    0.50000   1.00
C1       1.00000    1.00000    0.60520   1.00
O1       1.00000    0.50000    1.00000   1.00
Zn1      1.03280    0.46720    0.96720   1.00
Zn1      0.96720    0.53280    0.96720   1.00
Zn1      0.96720    0.46720    1.03280   1.00
Zn1      1.03280    0.53280    1.03280   1.00
O2       1.02350    0.47650    0.91180   1.00
O2       1.02350    0.41180    0.97650   1.00
O2       1.08820    0.47650    0.97650   1.00
O2       0.97650    0.52350    0.91180   1.00
O2       0.91180    0.52350    0.97650   1.00
O2       0.97650    0.58820    0.97650   1.00
O2       0.97650    0.41180    1.02350   1.00
O2       0.91180    0.47650    1.02350   1.00
O2       0.97650    0.47650    1.08820   1.00
O2       1.08820    0.52350    1.02350   1.00
O2       1.02350    0.58820    1.02350   1.00
O2       1.02350    0.52350    1.08820   1.00
C1       1.00000    0.50000    0.89480   1.00
C1       1.00000    0.39480    1.00000   1.00
C1       1.10520    0.50000    1.00000   1.00
C1       0.89480    0.50000    1.00000   1.00
C1       1.00000    0.60520    1.00000   1.00
C1       1.00000    0.50000    1.10520   1.00
O1       0.50000    1.00000    1.00000   1.00
Zn1      0.53280    0.96720    0.96720   1.00
Zn1      0.46720    1.03280    0.96720   1.00
Zn1      0.46720    0.96720    1.03280   1.00
Zn1      0.53280    1.03280    1.03280   1.00
O2       0.52350    0.97650    0.91180   1.00
O2       0.52350    0.91180    0.97650   1.00
O2       0.58820    0.97650    0.97650   1.00
O2       0.47650    1.02350    0.91180   1.00
O2       0.41180    1.02350    0.97650   1.00
O2       0.47650    1.08820    0.97650   1.00
O2       0.47650    0.91180    1.02350   1.00
O2       0.41180    0.97650    1.02350   1.00
O2       0.47650    0.97650    1.08820   1.00
O2       0.58820    1.02350    1.02350   1.00
O2       0.52350    1.08820    1.02350   1.00
O2       0.52350    1.02350    1.08820   1.00
C1       0.50000    1.00000    0.89480   1.00
C1       0.50000    0.89480    1.00000   1.00
C1       0.60520    1.00000    1.00000   1.00
C1       0.39480    1.00000    1.00000   1.00
C1       0.50000    1.10520    1.00000   1.00
C1       0.50000    1.00000    1.10520   1.00
C5       0.73330    0.87591    1.13227   1.00
H2       0.70802    0.86261    1.14755   1.00
H2       0.72076    0.89690    1.11099   1.00
C5       0.75935    0.89749    1.16219   1.00
H2       0.74729    0.92690    1.16890   1.00
H2       0.78943    0.90082    1.15040   1.00
O_3      0.81752    0.77115    0.98000   1.00
C4       0.74963    0.74975    1.02100   1.00
C3c      0.73859    0.78288    1.04243   1.00
H1       0.72973    0.80908    1.02725   1.00
C3d      0.76053    0.71573    1.04135   1.00
C3       0.73929    0.78301    1.08354   1.00
O2       0.72359    0.81476    1.10248   1.00
C3       0.76198    0.71600    1.08227   1.00
H1       0.77185    0.68968    1.09657   1.00
C2       0.75131    0.74940    1.10439   1.00
C5       0.84552    0.74095    0.97879   1.00
H2       0.85458    0.73380    0.94838   1.00
H2       0.83409    0.71380    0.99266   1.00
C5       0.88117    0.75480    1.00122   1.00
H2       0.87192    0.76299    1.03129   1.00
H2       0.89255    0.78170    0.98691   1.00
C5       0.91268    0.72304    1.00254   1.00
H2       0.92186    0.71452    0.97260   1.00
H2       0.90179    0.69665    1.01803   1.00
H2       0.93884    0.73399    1.01830   1.00
C5       0.74289    0.65916    1.01105   1.00
C5       0.75325    0.84224    1.11070   1.00
H2       0.72259    0.67448    0.99088   1.00
H2       0.72613    0.64918    1.03712   1.00
H2       0.76662    0.85293    1.08300   1.00
H2       0.77723    0.82968    1.12895   1.00
H2       0.76062    0.88140    1.19055   1.00
H2       0.71686    0.61758    0.94250   1.00
H2       0.70324    0.59331    0.98766   1.00
C2       0.75234    0.74893    0.89605   1.00
C3       0.71737    0.74010    0.91597   1.00
O2       0.68702    0.72194    0.89674   1.00
C3       0.78541    0.75979    0.91826   1.00
H1       0.81232    0.76770    0.90385   1.00
C3a      0.71649    0.74130    0.95713   1.00
H1       0.69016    0.73231    0.97202   1.00
C3b      0.78478    0.75974    0.95922   1.00
C4       0.75018    0.75038    0.97900   1.00
O_3      0.77447    0.68334    1.02167   1.00
C5       0.65779    0.74933    0.88720   1.00
H2       0.64592    0.76374    0.91391   1.00
C5       0.62507    0.72691    0.86666   1.00
H2       0.66938    0.77227    0.86726   1.00
H2       0.60702    0.71207    0.88923   1.00
H2       0.63896    0.70343    0.84899   1.00
C5       0.59940    0.75322    0.84069   1.00
H2       0.58829    0.77821    0.85811   1.00
H2       0.57408    0.73660    0.82891   1.00
H2       0.61604    0.76440    0.81494   1.00
C5       0.75962    0.62368    0.99020   1.00
H2       0.77438    0.60483    1.01218   1.00
H2       0.78257    0.63389    0.96955   1.00
C5       0.72802    0.60071    0.96803   1.00
H2       0.74043    0.57299    0.95666   1.00
C5       0.87591    1.13227    0.73330   1.00
H2       0.86261    1.14755    0.70802   1.00
H2       0.89690    1.11099    0.72076   1.00
C5       0.89749    1.16219    0.75935   1.00
H2       0.92690    1.16890    0.74729   1.00
H2       0.90082    1.15040    0.78943   1.00
O_3      0.77115    0.98000    0.81752   1.00
C4       0.74975    1.02100    0.74963   1.00
C3c      0.78288    1.04243    0.73859   1.00
H1       0.80908    1.02725    0.72973   1.00
C3d      0.71573    1.04135    0.76053   1.00
C3       0.78301    1.08354    0.73929   1.00
O2       0.81476    1.10248    0.72359   1.00
C3       0.71600    1.08227    0.76198   1.00
H1       0.68968    1.09657    0.77185   1.00
C2       0.74940    1.10439    0.75131   1.00
C5       0.74095    0.97879    0.84552   1.00
H2       0.73380    0.94838    0.85458   1.00
H2       0.71380    0.99266    0.83409   1.00
C5       0.75480    1.00122    0.88117   1.00
H2       0.76299    1.03129    0.87192   1.00
H2       0.78170    0.98691    0.89255   1.00
C5       0.72304    1.00254    0.91268   1.00
H2       0.71452    0.97260    0.92186   1.00
H2       0.69665    1.01803    0.90179   1.00
H2       0.73399    1.01830    0.93884   1.00
C5       0.65916    1.01105    0.74289   1.00
C5       0.84224    1.11070    0.75325   1.00
H2       0.67448    0.99088    0.72259   1.00
H2       0.64918    1.03712    0.72613   1.00
H2       0.85293    1.08300    0.76662   1.00
H2       0.82968    1.12895    0.77723   1.00
H2       0.88140    1.19055    0.76062   1.00
H2       0.61758    0.94250    0.71686   1.00
H2       0.59331    0.98766    0.70324   1.00
C2       0.74893    0.89605    0.75234   1.00
C3       0.74010    0.91597    0.71737   1.00
O2       0.72194    0.89674    0.68702   1.00
C3       0.75979    0.91826    0.78541   1.00
H1       0.76770    0.90385    0.81232   1.00
C3a      0.74130    0.95713    0.71649   1.00
H1       0.73231    0.97202    0.69016   1.00
C3b      0.75974    0.95922    0.78478   1.00
C4       0.75038    0.97900    0.75018   1.00
O_3      0.68334    1.02167    0.77447   1.00
C5       0.74933    0.88720    0.65779   1.00
H2       0.76374    0.91391    0.64592   1.00
C5       0.72691    0.86666    0.62507   1.00
H2       0.77227    0.86726    0.66938   1.00
H2       0.71207    0.88923    0.60702   1.00
H2       0.70343    0.84899    0.63896   1.00
C5       0.75322    0.84069    0.59940   1.00
H2       0.77821    0.85811    0.58829   1.00
H2       0.73660    0.82891    0.57408   1.00
H2       0.76440    0.81494    0.61604   1.00
C5       0.62368    0.99020    0.75962   1.00
H2       0.60483    1.01218    0.77438   1.00
H2       0.63389    0.96955    0.78257   1.00
C5       0.60071    0.96803    0.72802   1.00
H2       0.57299    0.95666    0.74043   1.00
C5       0.36773    0.73330    0.62409   1.00
H2       0.35245    0.70802    0.63739   1.00
H2       0.38901    0.72076    0.60310   1.00
C5       0.33781    0.75935    0.60251   1.00
H2       0.33110    0.74729    0.57310   1.00
H2       0.34960    0.78943    0.59918   1.00
O_3      0.52000    0.81752    0.72885   1.00
C4       0.47900    0.74963    0.75025   1.00
C3c      0.45757    0.73859    0.71712   1.00
H1       0.47275    0.72973    0.69092   1.00
C3d      0.45865    0.76053    0.78427   1.00
C3       0.41646    0.73929    0.71699   1.00
O2       0.39752    0.72359    0.68524   1.00
C3       0.41773    0.76198    0.78400   1.00
H1       0.40343    0.77185    0.81032   1.00
C2       0.39561    0.75131    0.75060   1.00
C5       0.52121    0.84552    0.75905   1.00
H2       0.55162    0.85458    0.76620   1.00
H2       0.50734    0.83409    0.78620   1.00
C5       0.49878    0.88117    0.74520   1.00
H2       0.46871    0.87192    0.73701   1.00
H2       0.51309    0.89255    0.71830   1.00
C5       0.49746    0.91268    0.77696   1.00
H2       0.52740    0.92186    0.78548   1.00
H2       0.48197    0.90179    0.80335   1.00
H2       0.48170    0.93884    0.76601   1.00
C5       0.48895    0.74289    0.84084   1.00
C5       0.38930    0.75325    0.65776   1.00
H2       0.50912    0.72259    0.82552   1.00
H2       0.46288    0.72613    0.85082   1.00
H2       0.41700    0.76662    0.64707   1.00
H2       0.37105    0.77723    0.67032   1.00
H2       0.30945    0.76062    0.61860   1.00
H2       0.55750    0.71686    0.88242   1.00
H2       0.51234    0.70324    0.90669   1.00
C2       0.60395    0.75234    0.75107   1.00
C3       0.58403    0.71737    0.75990   1.00
O2       0.60326    0.68702    0.77806   1.00
C3       0.58174    0.78541    0.74021   1.00
H1       0.59615    0.81232    0.73230   1.00
C3a      0.54287    0.71649    0.75870   1.00
H1       0.52798    0.69016    0.76769   1.00
C3b      0.54078    0.78478    0.74026   1.00
C4       0.52100    0.75018    0.74962   1.00
O_3      0.47833    0.77447    0.81666   1.00
C5       0.61280    0.65779    0.75067   1.00
H2       0.58609    0.64592    0.73626   1.00
C5       0.63334    0.62507    0.77309   1.00
H2       0.63274    0.66938    0.72773   1.00
H2       0.61077    0.60702    0.78793   1.00
H2       0.65101    0.63896    0.79657   1.00
C5       0.65931    0.59940    0.74678   1.00
H2       0.64189    0.58829    0.72179   1.00
H2       0.67109    0.57408    0.76340   1.00
H2       0.68506    0.61604    0.73560   1.00
C5       0.50980    0.75962    0.87632   1.00
H2       0.48782    0.77438    0.89517   1.00
H2       0.53045    0.78257    0.86611   1.00
C5       0.53197    0.72802    0.89929   1.00
H2       0.54334    0.74043    0.92701   1.00
C5       1.13227    0.73330    0.87591   1.00
H2       1.14755    0.70802    0.86261   1.00
H2       1.11099    0.72076    0.89690   1.00
C5       1.16219    0.75935    0.89749   1.00
H2       1.16890    0.74729    0.92690   1.00
H2       1.15040    0.78943    0.90082   1.00
O_3      0.98000    0.81752    0.77115   1.00
C4       1.02100    0.74963    0.74975   1.00
C3c      1.04243    0.73859    0.78288   1.00
H1       1.02725    0.72973    0.80908   1.00
C3d      1.04135    0.76053    0.71573   1.00
C3       1.08354    0.73929    0.78301   1.00
O2       1.10248    0.72359    0.81476   1.00
C3       1.08227    0.76198    0.71600   1.00
H1       1.09657    0.77185    0.68968   1.00
C2       1.10439    0.75131    0.74940   1.00
C5       0.97879    0.84552    0.74095   1.00
H2       0.94838    0.85458    0.73380   1.00
H2       0.99266    0.83409    0.71380   1.00
C5       1.00122    0.88117    0.75480   1.00
H2       1.03129    0.87192    0.76299   1.00
H2       0.98691    0.89255    0.78170   1.00
C5       1.00254    0.91268    0.72304   1.00
H2       0.97260    0.92186    0.71452   1.00
H2       1.01803    0.90179    0.69665   1.00
H2       1.01830    0.93884    0.73399   1.00
C5       1.01105    0.74289    0.65916   1.00
C5       1.11070    0.75325    0.84224   1.00
H2       0.99088    0.72259    0.67448   1.00
H2       1.03712    0.72613    0.64918   1.00
H2       1.08300    0.76662    0.85293   1.00
H2       1.12895    0.77723    0.82968   1.00
H2       1.19055    0.76062    0.88140   1.00
H2       0.94250    0.71686    0.61758   1.00
H2       0.98766    0.70324    0.59331   1.00
C2       0.89605    0.75234    0.74893   1.00
C3       0.91597    0.71737    0.74010   1.00
O2       0.89674    0.68702    0.72194   1.00
C3       0.91826    0.78541    0.75979   1.00
H1       0.90385    0.81232    0.76770   1.00
C3a      0.95713    0.71649    0.74130   1.00
H1       0.97202    0.69016    0.73231   1.00
C3b      0.95922    0.78478    0.75974   1.00
C4       0.97900    0.75018    0.75038   1.00
O_3      1.02167    0.77447    0.68334   1.00
C5       0.88720    0.65779    0.74933   1.00
H2       0.91391    0.64592    0.76374   1.00
C5       0.86666    0.62507    0.72691   1.00
H2       0.86726    0.66938    0.77227   1.00
H2       0.88923    0.60702    0.71207   1.00
H2       0.84899    0.63896    0.70343   1.00
C5       0.84069    0.59940    0.75322   1.00
H2       0.85811    0.58829    0.77821   1.00
H2       0.82891    0.57408    0.73660   1.00
H2       0.81494    0.61604    0.76440   1.00
C5       0.99020    0.75962    0.62368   1.00
H2       1.01218    0.77438    0.60483   1.00
H2       0.96955    0.78257    0.63389   1.00
C5       0.96803    0.72802    0.60071   1.00
H2       0.95666    0.74043    0.57299   1.00
C5       0.62409    0.36773    0.73330   1.00
H2       0.63739    0.35245    0.70802   1.00
H2       0.60310    0.38901    0.72076   1.00
C5       0.60251    0.33781    0.75935   1.00
H2       0.57310    0.33110    0.74729   1.00
H2       0.59918    0.34960    0.78943   1.00
O_3      0.72885    0.52000    0.81752   1.00
C4       0.75025    0.47900    0.74963   1.00
C3c      0.71712    0.45757    0.73859   1.00
H1       0.69092    0.47275    0.72973   1.00
C3d      0.78427    0.45865    0.76053   1.00
C3       0.71699    0.41646    0.73929   1.00
O2       0.68524    0.39752    0.72359   1.00
C3       0.78400    0.41773    0.76198   1.00
H1       0.81032    0.40343    0.77185   1.00
C2       0.75060    0.39561    0.75131   1.00
C5       0.75905    0.52121    0.84552   1.00
H2       0.76620    0.55162    0.85458   1.00
H2       0.78620    0.50734    0.83409   1.00
C5       0.74520    0.49878    0.88117   1.00
H2       0.73701    0.46871    0.87192   1.00
H2       0.71830    0.51309    0.89255   1.00
C5       0.77696    0.49746    0.91268   1.00
H2       0.78548    0.52740    0.92186   1.00
H2       0.80335    0.48197    0.90179   1.00
H2       0.76601    0.48170    0.93884   1.00
C5       0.84084    0.48895    0.74289   1.00
C5       0.65776    0.38930    0.75325   1.00
H2       0.82552    0.50912    0.72259   1.00
H2       0.85082    0.46288    0.72613   1.00
H2       0.64707    0.41700    0.76662   1.00
H2       0.67032    0.37105    0.77723   1.00
H2       0.61860    0.30945    0.76062   1.00
H2       0.88242    0.55750    0.71686   1.00
H2       0.90669    0.51234    0.70324   1.00
C2       0.75107    0.60395    0.75234   1.00
C3       0.75990    0.58403    0.71737   1.00
O2       0.77806    0.60326    0.68702   1.00
C3       0.74021    0.58174    0.78541   1.00
H1       0.73230    0.59615    0.81232   1.00
C3a      0.75870    0.54287    0.71649   1.00
H1       0.76769    0.52798    0.69016   1.00
C3b      0.74026    0.54078    0.78478   1.00
C4       0.74962    0.52100    0.75018   1.00
O_3      0.81666    0.47833    0.77447   1.00
C5       0.75067    0.61280    0.65779   1.00
H2       0.73626    0.58609    0.64592   1.00
C5       0.77309    0.63334    0.62507   1.00
H2       0.72773    0.63274    0.66938   1.00
H2       0.78793    0.61077    0.60702   1.00
H2       0.79657    0.65101    0.63896   1.00
C5       0.74678    0.65931    0.59940   1.00
H2       0.72179    0.64189    0.58829   1.00
H2       0.76340    0.67109    0.57408   1.00
H2       0.73560    0.68506    0.61604   1.00
C5       0.87632    0.50980    0.75962   1.00
H2       0.89517    0.48782    0.77438   1.00
H2       0.86611    0.53045    0.78257   1.00
C5       0.89929    0.53197    0.72802   1.00
H2       0.92701    0.54334    0.74043   1.00
C5       0.73330    0.62409    0.36773   1.00
H2       0.70802    0.63739    0.35245   1.00
H2       0.72076    0.60310    0.38901   1.00
C5       0.75935    0.60251    0.33781   1.00
H2       0.74729    0.57310    0.33110   1.00
H2       0.78943    0.59918    0.34960   1.00
O_3      0.81752    0.72885    0.52000   1.00
C4       0.74963    0.75025    0.47900   1.00
C3c      0.73859    0.71712    0.45757   1.00
H1       0.72973    0.69092    0.47275   1.00
C3d      0.76053    0.78427    0.45865   1.00
C3       0.73929    0.71699    0.41646   1.00
O2       0.72359    0.68524    0.39752   1.00
C3       0.76198    0.78400    0.41773   1.00
H1       0.77185    0.81032    0.40343   1.00
C2       0.75131    0.75060    0.39561   1.00
C5       0.84552    0.75905    0.52121   1.00
H2       0.85458    0.76620    0.55162   1.00
H2       0.83409    0.78620    0.50734   1.00
C5       0.88117    0.74520    0.49878   1.00
H2       0.87192    0.73701    0.46871   1.00
H2       0.89255    0.71830    0.51309   1.00
C5       0.91268    0.77696    0.49746   1.00
H2       0.92186    0.78548    0.52740   1.00
H2       0.90179    0.80335    0.48197   1.00
H2       0.93884    0.76601    0.48170   1.00
C5       0.74289    0.84084    0.48895   1.00
C5       0.75325    0.65776    0.38930   1.00
H2       0.72259    0.82552    0.50912   1.00
H2       0.72613    0.85082    0.46288   1.00
H2       0.76662    0.64707    0.41700   1.00
H2       0.77723    0.67032    0.37105   1.00
H2       0.76062    0.61860    0.30945   1.00
H2       0.71686    0.88242    0.55750   1.00
H2       0.70324    0.90669    0.51234   1.00
C2       0.75234    0.75107    0.60395   1.00
C3       0.71737    0.75990    0.58403   1.00
O2       0.68702    0.77806    0.60326   1.00
C3       0.78541    0.74021    0.58174   1.00
H1       0.81232    0.73230    0.59615   1.00
C3a      0.71649    0.75870    0.54287   1.00
H1       0.69016    0.76769    0.52798   1.00
C3b      0.78478    0.74026    0.54078   1.00
C4       0.75018    0.74962    0.52100   1.00
O_3      0.77447    0.81666    0.47833   1.00
C5       0.65779    0.75067    0.61280   1.00
H2       0.64592    0.73626    0.58609   1.00
C5       0.62507    0.77309    0.63334   1.00
H2       0.66938    0.72773    0.63274   1.00
H2       0.60702    0.78793    0.61077   1.00
H2       0.63896    0.79657    0.65101   1.00
C5       0.59940    0.74678    0.65931   1.00
H2       0.58829    0.72179    0.64189   1.00
H2       0.57408    0.76340    0.67109   1.00
H2       0.61604    0.73560    0.68506   1.00
C5       0.75962    0.87632    0.50980   1.00
H2       0.77438    0.89517    0.48782   1.00
H2       0.78257    0.86611    0.53045   1.00
C5       0.72802    0.89929    0.53197   1.00
H2       0.74043    0.92701    0.54334   1.00
C5       0.23330    0.37591    1.13227   1.00
H2       0.20802    0.36261    1.14755   1.00
H2       0.22076    0.39690    1.11099   1.00
C5       0.25935    0.39749    1.16219   1.00
H2       0.24729    0.42690    1.16890   1.00
H2       0.28943    0.40082    1.15040   1.00
O_3      0.31752    0.27115    0.98000   1.00
C4       0.24963    0.24975    1.02100   1.00
C3c      0.23859    0.28288    1.04243   1.00
H1       0.22973    0.30908    1.02725   1.00
C3d      0.26053    0.21573    1.04135   1.00
C3       0.23929    0.28301    1.08354   1.00
O2       0.22359    0.31476    1.10248   1.00
C3       0.26198    0.21600    1.08227   1.00
H1       0.27185    0.18968    1.09657   1.00
C2       0.25131    0.24940    1.10439   1.00
C5       0.34552    0.24095    0.97879   1.00
H2       0.35458    0.23380    0.94838   1.00
H2       0.33409    0.21380    0.99266   1.00
C5       0.38117    0.25480    1.00122   1.00
H2       0.37192    0.26299    1.03129   1.00
H2       0.39255    0.28170    0.98691   1.00
C5       0.41268    0.22304    1.00254   1.00
H2       0.42186    0.21452    0.97260   1.00
H2       0.40179    0.19665    1.01803   1.00
H2       0.43884    0.23399    1.01830   1.00
C5       0.24289    0.15916    1.01105   1.00
C5       0.25325    0.34224    1.11070   1.00
H2       0.22259    0.17448    0.99088   1.00
H2       0.22613    0.14918    1.03712   1.00
H2       0.26662    0.35293    1.08300   1.00
H2       0.27723    0.32968    1.12895   1.00
H2       0.26062    0.38140    1.19055   1.00
H2       0.21686    0.11758    0.94250   1.00
H2       0.20324    0.09331    0.98766   1.00
C2       0.25234    0.24893    0.89605   1.00
C3       0.21737    0.24010    0.91597   1.00
O2       0.18702    0.22194    0.89674   1.00
C3       0.28541    0.25979    0.91826   1.00
H1       0.31232    0.26770    0.90385   1.00
C3a      0.21649    0.24130    0.95713   1.00
H1       0.19016    0.23231    0.97202   1.00
C3b      0.28478    0.25974    0.95922   1.00
C4       0.25018    0.25038    0.97900   1.00
O_3      0.27447    0.18334    1.02167   1.00
C5       0.15779    0.24933    0.88720   1.00
H2       0.14592    0.26374    0.91391   1.00
C5       0.12507    0.22691    0.86666   1.00
H2       0.16938    0.27227    0.86726   1.00
H2       0.10702    0.21207    0.88923   1.00
H2       0.13896    0.20343    0.84899   1.00
C5       0.09940    0.25322    0.84069   1.00
H2       0.08829    0.27821    0.85811   1.00
H2       0.07408    0.23660    0.82891   1.00
H2       0.11604    0.26440    0.81494   1.00
C5       0.25962    0.12368    0.99020   1.00
H2       0.27438    0.10483    1.01218   1.00
H2       0.28257    0.13389    0.96955   1.00
C5       0.22802    0.10071    0.96803   1.00
H2       0.24043    0.07299    0.95666   1.00
C5       0.37591    0.63227    0.73330   1.00
H2       0.36261    0.64755    0.70802   1.00
H2       0.39690    0.61099    0.72076   1.00
C5       0.39749    0.66219    0.75935   1.00
H2       0.42690    0.66890    0.74729   1.00
H2       0.40082    0.65040    0.78943   1.00
O_3      0.27115    0.48000    0.81752   1.00
C4       0.24975    0.52100    0.74963   1.00
C3c      0.28288    0.54243    0.73859   1.00
H1       0.30908    0.52725    0.72973   1.00
C3d      0.21573    0.54135    0.76053   1.00
C3       0.28301    0.58354    0.73929   1.00
O2       0.31476    0.60248    0.72359   1.00
C3       0.21600    0.58227    0.76198   1.00
H1       0.18968    0.59657    0.77185   1.00
C2       0.24940    0.60439    0.75131   1.00
C5       0.24095    0.47879    0.84552   1.00
H2       0.23380    0.44838    0.85458   1.00
H2       0.21380    0.49266    0.83409   1.00
C5       0.25480    0.50122    0.88117   1.00
H2       0.26299    0.53129    0.87192   1.00
H2       0.28170    0.48691    0.89255   1.00
C5       0.22304    0.50254    0.91268   1.00
H2       0.21452    0.47260    0.92186   1.00
H2       0.19665    0.51803    0.90179   1.00
H2       0.23399    0.51830    0.93884   1.00
C5       0.15916    0.51105    0.74289   1.00
C5       0.34224    0.61070    0.75325   1.00
H2       0.17448    0.49088    0.72259   1.00
H2       0.14918    0.53712    0.72613   1.00
H2       0.35293    0.58300    0.76662   1.00
H2       0.32968    0.62895    0.77723   1.00
H2       0.38140    0.69055    0.76062   1.00
H2       0.11758    0.44250    0.71686   1.00
H2       0.09331    0.48766    0.70324   1.00
C2       0.24893    0.39605    0.75234   1.00
C3       0.24010    0.41597    0.71737   1.00
O2       0.22194    0.39674    0.68702   1.00
C3       0.25979    0.41826    0.78541   1.00
H1       0.26770    0.40385    0.81232   1.00
C3a      0.24130    0.45713    0.71649   1.00
H1       0.23231    0.47202    0.69016   1.00
C3b      0.25974    0.45922    0.78478   1.00
C4       0.25038    0.47900    0.75018   1.00
O_3      0.18334    0.52167    0.77447   1.00
C5       0.24933    0.38720    0.65779   1.00
H2       0.26374    0.41391    0.64592   1.00
C5       0.22691    0.36666    0.62507   1.00
H2       0.27227    0.36726    0.66938   1.00
H2       0.21207    0.38923    0.60702   1.00
H2       0.20343    0.34899    0.63896   1.00
C5       0.25322    0.34069    0.59940   1.00
H2       0.27821    0.35811    0.58829   1.00
H2       0.23660    0.32891    0.57408   1.00
H2       0.26440    0.31494    0.61604   1.00
C5       0.12368    0.49020    0.75962   1.00
H2       0.10483    0.51218    0.77438   1.00
H2       0.13389    0.46955    0.78257   1.00
C5       0.10071    0.46803    0.72802   1.00
H2       0.07299    0.45666    0.74043   1.00
C5       -0.13227   0.23330    0.62409   1.00
H2       -0.14755   0.20802    0.63739   1.00
H2       -0.11099   0.22076    0.60310   1.00
C5       -0.16219   0.25935    0.60251   1.00
H2       -0.16890   0.24729    0.57310   1.00
H2       -0.15040   0.28943    0.59918   1.00
O_3      0.02000    0.31752    0.72885   1.00
C4       -0.02100   0.24963    0.75025   1.00
C3c      -0.04243   0.23859    0.71712   1.00
H1       -0.02725   0.22973    0.69092   1.00
C3d      -0.04135   0.26053    0.78427   1.00
C3       -0.08354   0.23929    0.71699   1.00
O2       -0.10248   0.22359    0.68524   1.00
C3       -0.08227   0.26198    0.78400   1.00
H1       -0.09657   0.27185    0.81032   1.00
C2       -0.10439   0.25131    0.75060   1.00
C5       0.02121    0.34552    0.75905   1.00
H2       0.05162    0.35458    0.76620   1.00
H2       0.00734    0.33409    0.78620   1.00
C5       -0.00122   0.38117    0.74520   1.00
H2       -0.03129   0.37192    0.73701   1.00
H2       0.01309    0.39255    0.71830   1.00
C5       -0.00254   0.41268    0.77696   1.00
H2       0.02740    0.42186    0.78548   1.00
H2       -0.01803   0.40179    0.80335   1.00
H2       -0.01830   0.43884    0.76601   1.00
C5       -0.01105   0.24289    0.84084   1.00
C5       -0.11070   0.25325    0.65776   1.00
H2       0.00912    0.22259    0.82552   1.00
H2       -0.03712   0.22613    0.85082   1.00
H2       -0.08300   0.26662    0.64707   1.00
H2       -0.12895   0.27723    0.67032   1.00
H2       -0.19055   0.26062    0.61860   1.00
H2       0.05750    0.21686    0.88242   1.00
H2       0.01234    0.20324    0.90669   1.00
C2       0.10395    0.25234    0.75107   1.00
C3       0.08403    0.21737    0.75990   1.00
O2       0.10326    0.18702    0.77806   1.00
C3       0.08174    0.28541    0.74021   1.00
H1       0.09615    0.31232    0.73230   1.00
C3a      0.04287    0.21649    0.75870   1.00
H1       0.02798    0.19016    0.76769   1.00
C3b      0.04078    0.28478    0.74026   1.00
C4       0.02100    0.25018    0.74962   1.00
O_3      -0.02167   0.27447    0.81666   1.00
C5       0.11280    0.15779    0.75067   1.00
H2       0.08609    0.14592    0.73626   1.00
C5       0.13334    0.12507    0.77309   1.00
H2       0.13274    0.16938    0.72773   1.00
H2       0.11077    0.10702    0.78793   1.00
H2       0.15101    0.13896    0.79657   1.00
C5       0.15931    0.09940    0.74678   1.00
H2       0.14189    0.08829    0.72179   1.00
H2       0.17109    0.07408    0.76340   1.00
H2       0.18506    0.11604    0.73560   1.00
C5       0.00980    0.25962    0.87632   1.00
H2       -0.01218   0.27438    0.89517   1.00
H2       0.03045    0.28257    0.86611   1.00
C5       0.03197    0.22802    0.89929   1.00
H2       0.04334    0.24043    0.92701   1.00
C5       0.63227    0.23330    0.87591   1.00
H2       0.64755    0.20802    0.86261   1.00
H2       0.61099    0.22076    0.89690   1.00
C5       0.66219    0.25935    0.89749   1.00
H2       0.66890    0.24729    0.92690   1.00
H2       0.65040    0.28943    0.90082   1.00
O_3      0.48000    0.31752    0.77115   1.00
C4       0.52100    0.24963    0.74975   1.00
C3c      0.54243    0.23859    0.78288   1.00
H1       0.52725    0.22973    0.80908   1.00
C3d      0.54135    0.26053    0.71573   1.00
C3       0.58354    0.23929    0.78301   1.00
O2       0.60248    0.22359    0.81476   1.00
C3       0.58227    0.26198    0.71600   1.00
H1       0.59657    0.27185    0.68968   1.00
C2       0.60439    0.25131    0.74940   1.00
C5       0.47879    0.34552    0.74095   1.00
H2       0.44838    0.35458    0.73380   1.00
H2       0.49266    0.33409    0.71380   1.00
C5       0.50122    0.38117    0.75480   1.00
H2       0.53129    0.37192    0.76299   1.00
H2       0.48691    0.39255    0.78170   1.00
C5       0.50254    0.41268    0.72304   1.00
H2       0.47260    0.42186    0.71452   1.00
H2       0.51803    0.40179    0.69665   1.00
H2       0.51830    0.43884    0.73399   1.00
C5       0.51105    0.24289    0.65916   1.00
C5       0.61070    0.25325    0.84224   1.00
H2       0.49088    0.22259    0.67448   1.00
H2       0.53712    0.22613    0.64918   1.00
H2       0.58300    0.26662    0.85293   1.00
H2       0.62895    0.27723    0.82968   1.00
H2       0.69055    0.26062    0.88140   1.00
H2       0.44250    0.21686    0.61758   1.00
H2       0.48766    0.20324    0.59331   1.00
C2       0.39605    0.25234    0.74893   1.00
C3       0.41597    0.21737    0.74010   1.00
O2       0.39674    0.18702    0.72194   1.00
C3       0.41826    0.28541    0.75979   1.00
H1       0.40385    0.31232    0.76770   1.00
C3a      0.45713    0.21649    0.74130   1.00
H1       0.47202    0.19016    0.73231   1.00
C3b      0.45922    0.28478    0.75974   1.00
C4       0.47900    0.25018    0.75038   1.00
O_3      0.52167    0.27447    0.68334   1.00
C5       0.38720    0.15779    0.74933   1.00
H2       0.41391    0.14592    0.76374   1.00
C5       0.36666    0.12507    0.72691   1.00
H2       0.36726    0.16938    0.77227   1.00
H2       0.38923    0.10702    0.71207   1.00
H2       0.34899    0.13896    0.70343   1.00
C5       0.34069    0.09940    0.75322   1.00
H2       0.35811    0.08829    0.77821   1.00
H2       0.32891    0.07408    0.73660   1.00
H2       0.31494    0.11604    0.76440   1.00
C5       0.49020    0.25962    0.62368   1.00
H2       0.51218    0.27438    0.60483   1.00
H2       0.46955    0.28257    0.63389   1.00
C5       0.46803    0.22802    0.60071   1.00
H2       0.45666    0.24043    0.57299   1.00
C5       0.12409    -0.13227   0.73330   1.00
H2       0.13739    -0.14755   0.70802   1.00
H2       0.10310    -0.11099   0.72076   1.00
C5       0.10251    -0.16219   0.75935   1.00
H2       0.07310    -0.16890   0.74729   1.00
H2       0.09918    -0.15040   0.78943   1.00
O_3      0.22885    0.02000    0.81752   1.00
C4       0.25025    -0.02100   0.74963   1.00
C3c      0.21712    -0.04243   0.73859   1.00
H1       0.19092    -0.02725   0.72973   1.00
C3d      0.28427    -0.04135   0.76053   1.00
C3       0.21699    -0.08354   0.73929   1.00
O2       0.18524    -0.10248   0.72359   1.00
C3       0.28400    -0.08227   0.76198   1.00
H1       0.31032    -0.09657   0.77185   1.00
C2       0.25060    -0.10439   0.75131   1.00
C5       0.25905    0.02121    0.84552   1.00
H2       0.26620    0.05162    0.85458   1.00
H2       0.28620    0.00734    0.83409   1.00
C5       0.24520    -0.00122   0.88117   1.00
H2       0.23701    -0.03129   0.87192   1.00
H2       0.21830    0.01309    0.89255   1.00
C5       0.27696    -0.00254   0.91268   1.00
H2       0.28548    0.02740    0.92186   1.00
H2       0.30335    -0.01803   0.90179   1.00
H2       0.26601    -0.01830   0.93884   1.00
C5       0.34084    -0.01105   0.74289   1.00
C5       0.15776    -0.11070   0.75325   1.00
H2       0.32552    0.00912    0.72259   1.00
H2       0.35082    -0.03712   0.72613   1.00
H2       0.14707    -0.08300   0.76662   1.00
H2       0.17032    -0.12895   0.77723   1.00
H2       0.11860    -0.19055   0.76062   1.00
H2       0.38242    0.05750    0.71686   1.00
H2       0.40669    0.01234    0.70324   1.00
C2       0.25107    0.10395    0.75234   1.00
C3       0.25990    0.08403    0.71737   1.00
O2       0.27806    0.10326    0.68702   1.00
C3       0.24021    0.08174    0.78541   1.00
H1       0.23230    0.09615    0.81232   1.00
C3a      0.25870    0.04287    0.71649   1.00
H1       0.26769    0.02798    0.69016   1.00
C3b      0.24026    0.04078    0.78478   1.00
C4       0.24962    0.02100    0.75018   1.00
O_3      0.31666    -0.02167   0.77447   1.00
C5       0.25067    0.11280    0.65779   1.00
H2       0.23626    0.08609    0.64592   1.00
C5       0.27309    0.13334    0.62507   1.00
H2       0.22773    0.13274    0.66938   1.00
H2       0.28793    0.11077    0.60702   1.00
H2       0.29657    0.15101    0.63896   1.00
C5       0.24678    0.15931    0.59940   1.00
H2       0.22179    0.14189    0.58829   1.00
H2       0.26340    0.17109    0.57408   1.00
H2       0.23560    0.18506    0.61604   1.00
C5       0.37632    0.00980    0.75962   1.00
H2       0.39517    -0.01218   0.77438   1.00
H2       0.36611    0.03045    0.78257   1.00
C5       0.39929    0.03197    0.72802   1.00
H2       0.42701    0.04334    0.74043   1.00
C5       0.23330    0.12409    0.36773   1.00
H2       0.20802    0.13739    0.35245   1.00
H2       0.22076    0.10310    0.38901   1.00
C5       0.25935    0.10251    0.33781   1.00
H2       0.24729    0.07310    0.33110   1.00
H2       0.28943    0.09918    0.34960   1.00
O_3      0.31752    0.22885    0.52000   1.00
C4       0.24963    0.25025    0.47900   1.00
C3c      0.23859    0.21712    0.45757   1.00
H1       0.22973    0.19092    0.47275   1.00
C3d      0.26053    0.28427    0.45865   1.00
C3       0.23929    0.21699    0.41646   1.00
O2       0.22359    0.18524    0.39752   1.00
C3       0.26198    0.28400    0.41773   1.00
H1       0.27185    0.31032    0.40343   1.00
C2       0.25131    0.25060    0.39561   1.00
C5       0.34552    0.25905    0.52121   1.00
H2       0.35458    0.26620    0.55162   1.00
H2       0.33409    0.28620    0.50734   1.00
C5       0.38117    0.24520    0.49878   1.00
H2       0.37192    0.23701    0.46871   1.00
H2       0.39255    0.21830    0.51309   1.00
C5       0.41268    0.27696    0.49746   1.00
H2       0.42186    0.28548    0.52740   1.00
H2       0.40179    0.30335    0.48197   1.00
H2       0.43884    0.26601    0.48170   1.00
C5       0.24289    0.34084    0.48895   1.00
C5       0.25325    0.15776    0.38930   1.00
H2       0.22259    0.32552    0.50912   1.00
H2       0.22613    0.35082    0.46288   1.00
H2       0.26662    0.14707    0.41700   1.00
H2       0.27723    0.17032    0.37105   1.00
H2       0.26062    0.11860    0.30945   1.00
H2       0.21686    0.38242    0.55750   1.00
H2       0.20324    0.40669    0.51234   1.00
C2       0.25234    0.25107    0.60395   1.00
C3       0.21737    0.25990    0.58403   1.00
O2       0.18702    0.27806    0.60326   1.00
C3       0.28541    0.24021    0.58174   1.00
H1       0.31232    0.23230    0.59615   1.00
C3a      0.21649    0.25870    0.54287   1.00
H1       0.19016    0.26769    0.52798   1.00
C3b      0.28478    0.24026    0.54078   1.00
C4       0.25018    0.24962    0.52100   1.00
O_3      0.27447    0.31666    0.47833   1.00
C5       0.15779    0.25067    0.61280   1.00
H2       0.14592    0.23626    0.58609   1.00
C5       0.12507    0.27309    0.63334   1.00
H2       0.16938    0.22773    0.63274   1.00
H2       0.10702    0.28793    0.61077   1.00
H2       0.13896    0.29657    0.65101   1.00
C5       0.09940    0.24678    0.65931   1.00
H2       0.08829    0.22179    0.64189   1.00
H2       0.07408    0.26340    0.67109   1.00
H2       0.11604    0.23560    0.68506   1.00
C5       0.25962    0.37632    0.50980   1.00
H2       0.27438    0.39517    0.48782   1.00
H2       0.28257    0.36611    0.53045   1.00
C5       0.22802    0.39929    0.53197   1.00
H2       0.24043    0.42701    0.54334   1.00
C5       0.23330    0.87591    0.63227   1.00
H2       0.20802    0.86261    0.64755   1.00
H2       0.22076    0.89690    0.61099   1.00
C5       0.25935    0.89749    0.66219   1.00
H2       0.24729    0.92690    0.66890   1.00
H2       0.28943    0.90082    0.65040   1.00
O_3      0.31752    0.77115    0.48000   1.00
C4       0.24963    0.74975    0.52100   1.00
C3c      0.23859    0.78288    0.54243   1.00
H1       0.22973    0.80908    0.52725   1.00
C3d      0.26053    0.71573    0.54135   1.00
C3       0.23929    0.78301    0.58354   1.00
O2       0.22359    0.81476    0.60248   1.00
C3       0.26198    0.71600    0.58227   1.00
H1       0.27185    0.68968    0.59657   1.00
C2       0.25131    0.74940    0.60439   1.00
C5       0.34552    0.74095    0.47879   1.00
H2       0.35458    0.73380    0.44838   1.00
H2       0.33409    0.71380    0.49266   1.00
C5       0.38117    0.75480    0.50122   1.00
H2       0.37192    0.76299    0.53129   1.00
H2       0.39255    0.78170    0.48691   1.00
C5       0.41268    0.72304    0.50254   1.00
H2       0.42186    0.71452    0.47260   1.00
H2       0.40179    0.69665    0.51803   1.00
H2       0.43884    0.73399    0.51830   1.00
C5       0.24289    0.65916    0.51105   1.00
C5       0.25325    0.84224    0.61070   1.00
H2       0.22259    0.67448    0.49088   1.00
H2       0.22613    0.64918    0.53712   1.00
H2       0.26662    0.85293    0.58300   1.00
H2       0.27723    0.82968    0.62895   1.00
H2       0.26062    0.88140    0.69055   1.00
H2       0.21686    0.61758    0.44250   1.00
H2       0.20324    0.59331    0.48766   1.00
C2       0.25234    0.74893    0.39605   1.00
C3       0.21737    0.74010    0.41597   1.00
O2       0.18702    0.72194    0.39674   1.00
C3       0.28541    0.75979    0.41826   1.00
H1       0.31232    0.76770    0.40385   1.00
C3a      0.21649    0.74130    0.45713   1.00
H1       0.19016    0.73231    0.47202   1.00
C3b      0.28478    0.75974    0.45922   1.00
C4       0.25018    0.75038    0.47900   1.00
O_3      0.27447    0.68334    0.52167   1.00
C5       0.15779    0.74933    0.38720   1.00
H2       0.14592    0.76374    0.41391   1.00
C5       0.12507    0.72691    0.36666   1.00
H2       0.16938    0.77227    0.36726   1.00
H2       0.10702    0.71207    0.38923   1.00
H2       0.13896    0.70343    0.34899   1.00
C5       0.09940    0.75322    0.34069   1.00
H2       0.08829    0.77821    0.35811   1.00
H2       0.07408    0.73660    0.32891   1.00
H2       0.11604    0.76440    0.31494   1.00
C5       0.25962    0.62368    0.49020   1.00
H2       0.27438    0.60483    0.51218   1.00
H2       0.28257    0.63389    0.46955   1.00
C5       0.22802    0.60071    0.46803   1.00
H2       0.24043    0.57299    0.45666   1.00
C5       0.37591    1.13227    0.23330   1.00
H2       0.36261    1.14755    0.20802   1.00
H2       0.39690    1.11099    0.22076   1.00
C5       0.39749    1.16219    0.25935   1.00
H2       0.42690    1.16890    0.24729   1.00
H2       0.40082    1.15040    0.28943   1.00
O_3      0.27115    0.98000    0.31752   1.00
C4       0.24975    1.02100    0.24963   1.00
C3c      0.28288    1.04243    0.23859   1.00
H1       0.30908    1.02725    0.22973   1.00
C3d      0.21573    1.04135    0.26053   1.00
C3       0.28301    1.08354    0.23929   1.00
O2       0.31476    1.10248    0.22359   1.00
C3       0.21600    1.08227    0.26198   1.00
H1       0.18968    1.09657    0.27185   1.00
C2       0.24940    1.10439    0.25131   1.00
C5       0.24095    0.97879    0.34552   1.00
H2       0.23380    0.94838    0.35458   1.00
H2       0.21380    0.99266    0.33409   1.00
C5       0.25480    1.00122    0.38117   1.00
H2       0.26299    1.03129    0.37192   1.00
H2       0.28170    0.98691    0.39255   1.00
C5       0.22304    1.00254    0.41268   1.00
H2       0.21452    0.97260    0.42186   1.00
H2       0.19665    1.01803    0.40179   1.00
H2       0.23399    1.01830    0.43884   1.00
C5       0.15916    1.01105    0.24289   1.00
C5       0.34224    1.11070    0.25325   1.00
H2       0.17448    0.99088    0.22259   1.00
H2       0.14918    1.03712    0.22613   1.00
H2       0.35293    1.08300    0.26662   1.00
H2       0.32968    1.12895    0.27723   1.00
H2       0.38140    1.19055    0.26062   1.00
H2       0.11758    0.94250    0.21686   1.00
H2       0.09331    0.98766    0.20324   1.00
C2       0.24893    0.89605    0.25234   1.00
C3       0.24010    0.91597    0.21737   1.00
O2       0.22194    0.89674    0.18702   1.00
C3       0.25979    0.91826    0.28541   1.00
H1       0.26770    0.90385    0.31232   1.00
C3a      0.24130    0.95713    0.21649   1.00
H1       0.23231    0.97202    0.19016   1.00
C3b      0.25974    0.95922    0.28478   1.00
C4       0.25038    0.97900    0.25018   1.00
O_3      0.18334    1.02167    0.27447   1.00
C5       0.24933    0.88720    0.15779   1.00
H2       0.26374    0.91391    0.14592   1.00
C5       0.22691    0.86666    0.12507   1.00
H2       0.27227    0.86726    0.16938   1.00
H2       0.21207    0.88923    0.10702   1.00
H2       0.20343    0.84899    0.13896   1.00
C5       0.25322    0.84069    0.09940   1.00
H2       0.27821    0.85811    0.08829   1.00
H2       0.23660    0.82891    0.07408   1.00
H2       0.26440    0.81494    0.11604   1.00
C5       0.12368    0.99020    0.25962   1.00
H2       0.10483    1.01218    0.27438   1.00
H2       0.13389    0.96955    0.28257   1.00
C5       0.10071    0.96803    0.22802   1.00
H2       0.07299    0.95666    0.24043   1.00
C5       -0.13227   0.73330    0.12409   1.00
H2       -0.14755   0.70802    0.13739   1.00
H2       -0.11099   0.72076    0.10310   1.00
C5       -0.16219   0.75935    0.10251   1.00
H2       -0.16890   0.74729    0.07310   1.00
H2       -0.15040   0.78943    0.09918   1.00
O_3      0.02000    0.81752    0.22885   1.00
C4       -0.02100   0.74963    0.25025   1.00
C3c      -0.04243   0.73859    0.21712   1.00
H1       -0.02725   0.72973    0.19092   1.00
C3d      -0.04135   0.76053    0.28427   1.00
C3       -0.08354   0.73929    0.21699   1.00
O2       -0.10248   0.72359    0.18524   1.00
C3       -0.08227   0.76198    0.28400   1.00
H1       -0.09657   0.77185    0.31032   1.00
C2       -0.10439   0.75131    0.25060   1.00
C5       0.02121    0.84552    0.25905   1.00
H2       0.05162    0.85458    0.26620   1.00
H2       0.00734    0.83409    0.28620   1.00
C5       -0.00122   0.88117    0.24520   1.00
H2       -0.03129   0.87192    0.23701   1.00
H2       0.01309    0.89255    0.21830   1.00
C5       -0.00254   0.91268    0.27696   1.00
H2       0.02740    0.92186    0.28548   1.00
H2       -0.01803   0.90179    0.30335   1.00
H2       -0.01830   0.93884    0.26601   1.00
C5       -0.01105   0.74289    0.34084   1.00
C5       -0.11070   0.75325    0.15776   1.00
H2       0.00912    0.72259    0.32552   1.00
H2       -0.03712   0.72613    0.35082   1.00
H2       -0.08300   0.76662    0.14707   1.00
H2       -0.12895   0.77723    0.17032   1.00
H2       -0.19055   0.76062    0.11860   1.00
H2       0.05750    0.71686    0.38242   1.00
H2       0.01234    0.70324    0.40669   1.00
C2       0.10395    0.75234    0.25107   1.00
C3       0.08403    0.71737    0.25990   1.00
O2       0.10326    0.68702    0.27806   1.00
C3       0.08174    0.78541    0.24021   1.00
H1       0.09615    0.81232    0.23230   1.00
C3a      0.04287    0.71649    0.25870   1.00
H1       0.02798    0.69016    0.26769   1.00
C3b      0.04078    0.78478    0.24026   1.00
C4       0.02100    0.75018    0.24962   1.00
O_3      -0.02167   0.77447    0.31666   1.00
C5       0.11280    0.65779    0.25067   1.00
H2       0.08609    0.64592    0.23626   1.00
C5       0.13334    0.62507    0.27309   1.00
H2       0.13274    0.66938    0.22773   1.00
H2       0.11077    0.60702    0.28793   1.00
H2       0.15101    0.63896    0.29657   1.00
C5       0.15931    0.59940    0.24678   1.00
H2       0.14189    0.58829    0.22179   1.00
H2       0.17109    0.57408    0.26340   1.00
H2       0.18506    0.61604    0.23560   1.00
C5       0.00980    0.75962    0.37632   1.00
H2       -0.01218   0.77438    0.39517   1.00
H2       0.03045    0.78257    0.36611   1.00
C5       0.03197    0.72802    0.39929   1.00
H2       0.04334    0.74043    0.42701   1.00
C5       0.63227    0.73330    0.37591   1.00
H2       0.64755    0.70802    0.36261   1.00
H2       0.61099    0.72076    0.39690   1.00
C5       0.66219    0.75935    0.39749   1.00
H2       0.66890    0.74729    0.42690   1.00
H2       0.65040    0.78943    0.40082   1.00
O_3      0.48000    0.81752    0.27115   1.00
C4       0.52100    0.74963    0.24975   1.00
C3c      0.54243    0.73859    0.28288   1.00
H1       0.52725    0.72973    0.30908   1.00
C3d      0.54135    0.76053    0.21573   1.00
C3       0.58354    0.73929    0.28301   1.00
O2       0.60248    0.72359    0.31476   1.00
C3       0.58227    0.76198    0.21600   1.00
H1       0.59657    0.77185    0.18968   1.00
C2       0.60439    0.75131    0.24940   1.00
C5       0.47879    0.84552    0.24095   1.00
H2       0.44838    0.85458    0.23380   1.00
H2       0.49266    0.83409    0.21380   1.00
C5       0.50122    0.88117    0.25480   1.00
H2       0.53129    0.87192    0.26299   1.00
H2       0.48691    0.89255    0.28170   1.00
C5       0.50254    0.91268    0.22304   1.00
H2       0.47260    0.92186    0.21452   1.00
H2       0.51803    0.90179    0.19665   1.00
H2       0.51830    0.93884    0.23399   1.00
C5       0.51105    0.74289    0.15916   1.00
C5       0.61070    0.75325    0.34224   1.00
H2       0.49088    0.72259    0.17448   1.00
H2       0.53712    0.72613    0.14918   1.00
H2       0.58300    0.76662    0.35293   1.00
H2       0.62895    0.77723    0.32968   1.00
H2       0.69055    0.76062    0.38140   1.00
H2       0.44250    0.71686    0.11758   1.00
H2       0.48766    0.70324    0.09331   1.00
C2       0.39605    0.75234    0.24893   1.00
C3       0.41597    0.71737    0.24010   1.00
O2       0.39674    0.68702    0.22194   1.00
C3       0.41826    0.78541    0.25979   1.00
H1       0.40385    0.81232    0.26770   1.00
C3a      0.45713    0.71649    0.24130   1.00
H1       0.47202    0.69016    0.23231   1.00
C3b      0.45922    0.78478    0.25974   1.00
C4       0.47900    0.75018    0.25038   1.00
O_3      0.52167    0.77447    0.18334   1.00
C5       0.38720    0.65779    0.24933   1.00
H2       0.41391    0.64592    0.26374   1.00
C5       0.36666    0.62507    0.22691   1.00
H2       0.36726    0.66938    0.27227   1.00
H2       0.38923    0.60702    0.21207   1.00
H2       0.34899    0.63896    0.20343   1.00
C5       0.34069    0.59940    0.25322   1.00
H2       0.35811    0.58829    0.27821   1.00
H2       0.32891    0.57408    0.23660   1.00
H2       0.31494    0.61604    0.26440   1.00
C5       0.49020    0.75962    0.12368   1.00
H2       0.51218    0.77438    0.10483   1.00
H2       0.46955    0.78257    0.13389   1.00
C5       0.46803    0.72802    0.10071   1.00
H2       0.45666    0.74043    0.07299   1.00
C5       0.12409    0.36773    0.23330   1.00
H2       0.13739    0.35245    0.20802   1.00
H2       0.10310    0.38901    0.22076   1.00
C5       0.10251    0.33781    0.25935   1.00
H2       0.07310    0.33110    0.24729   1.00
H2       0.09918    0.34960    0.28943   1.00
O_3      0.22885    0.52000    0.31752   1.00
C4       0.25025    0.47900    0.24963   1.00
C3c      0.21712    0.45757    0.23859   1.00
H1       0.19092    0.47275    0.22973   1.00
C3d      0.28427    0.45865    0.26053   1.00
C3       0.21699    0.41646    0.23929   1.00
O2       0.18524    0.39752    0.22359   1.00
C3       0.28400    0.41773    0.26198   1.00
H1       0.31032    0.40343    0.27185   1.00
C2       0.25060    0.39561    0.25131   1.00
C5       0.25905    0.52121    0.34552   1.00
H2       0.26620    0.55162    0.35458   1.00
H2       0.28620    0.50734    0.33409   1.00
C5       0.24520    0.49878    0.38117   1.00
H2       0.23701    0.46871    0.37192   1.00
H2       0.21830    0.51309    0.39255   1.00
C5       0.27696    0.49746    0.41268   1.00
H2       0.28548    0.52740    0.42186   1.00
H2       0.30335    0.48197    0.40179   1.00
H2       0.26601    0.48170    0.43884   1.00
C5       0.34084    0.48895    0.24289   1.00
C5       0.15776    0.38930    0.25325   1.00
H2       0.32552    0.50912    0.22259   1.00
H2       0.35082    0.46288    0.22613   1.00
H2       0.14707    0.41700    0.26662   1.00
H2       0.17032    0.37105    0.27723   1.00
H2       0.11860    0.30945    0.26062   1.00
H2       0.38242    0.55750    0.21686   1.00
H2       0.40669    0.51234    0.20324   1.00
C2       0.25107    0.60395    0.25234   1.00
C3       0.25990    0.58403    0.21737   1.00
O2       0.27806    0.60326    0.18702   1.00
C3       0.24021    0.58174    0.28541   1.00
H1       0.23230    0.59615    0.31232   1.00
C3a      0.25870    0.54287    0.21649   1.00
H1       0.26769    0.52798    0.19016   1.00
C3b      0.24026    0.54078    0.28478   1.00
C4       0.24962    0.52100    0.25018   1.00
O_3      0.31666    0.47833    0.27447   1.00
C5       0.25067    0.61280    0.15779   1.00
H2       0.23626    0.58609    0.14592   1.00
C5       0.27309    0.63334    0.12507   1.00
H2       0.22773    0.63274    0.16938   1.00
H2       0.28793    0.61077    0.10702   1.00
H2       0.29657    0.65101    0.13896   1.00
C5       0.24678    0.65931    0.09940   1.00
H2       0.22179    0.64189    0.08829   1.00
H2       0.26340    0.67109    0.07408   1.00
H2       0.23560    0.68506    0.11604   1.00
C5       0.37632    0.50980    0.25962   1.00
H2       0.39517    0.48782    0.27438   1.00
H2       0.36611    0.53045    0.28257   1.00
C5       0.39929    0.53197    0.22802   1.00
H2       0.42701    0.54334    0.24043   1.00
C5       0.23330    0.62409    -0.13227   1.00
H2       0.20802    0.63739    -0.14755   1.00
H2       0.22076    0.60310    -0.11099   1.00
C5       0.25935    0.60251    -0.16219   1.00
H2       0.24729    0.57310    -0.16890   1.00
H2       0.28943    0.59918    -0.15040   1.00
O_3      0.31752    0.72885    0.02000   1.00
C4       0.24963    0.75025    -0.02100   1.00
C3c      0.23859    0.71712    -0.04243   1.00
H1       0.22973    0.69092    -0.02725   1.00
C3d      0.26053    0.78427    -0.04135   1.00
C3       0.23929    0.71699    -0.08354   1.00
O2       0.22359    0.68524    -0.10248   1.00
C3       0.26198    0.78400    -0.08227   1.00
H1       0.27185    0.81032    -0.09657   1.00
C2       0.25131    0.75060    -0.10439   1.00
C5       0.34552    0.75905    0.02121   1.00
H2       0.35458    0.76620    0.05162   1.00
H2       0.33409    0.78620    0.00734   1.00
C5       0.38117    0.74520    -0.00122   1.00
H2       0.37192    0.73701    -0.03129   1.00
H2       0.39255    0.71830    0.01309   1.00
C5       0.41268    0.77696    -0.00254   1.00
H2       0.42186    0.78548    0.02740   1.00
H2       0.40179    0.80335    -0.01803   1.00
H2       0.43884    0.76601    -0.01830   1.00
C5       0.24289    0.84084    -0.01105   1.00
C5       0.25325    0.65776    -0.11070   1.00
H2       0.22259    0.82552    0.00912   1.00
H2       0.22613    0.85082    -0.03712   1.00
H2       0.26662    0.64707    -0.08300   1.00
H2       0.27723    0.67032    -0.12895   1.00
H2       0.26062    0.61860    -0.19055   1.00
H2       0.21686    0.88242    0.05750   1.00
H2       0.20324    0.90669    0.01234   1.00
C2       0.25234    0.75107    0.10395   1.00
C3       0.21737    0.75990    0.08403   1.00
O2       0.18702    0.77806    0.10326   1.00
C3       0.28541    0.74021    0.08174   1.00
H1       0.31232    0.73230    0.09615   1.00
C3a      0.21649    0.75870    0.04287   1.00
H1       0.19016    0.76769    0.02798   1.00
C3b      0.28478    0.74026    0.04078   1.00
C4       0.25018    0.74962    0.02100   1.00
O_3      0.27447    0.81666    -0.02167   1.00
C5       0.15779    0.75067    0.11280   1.00
H2       0.14592    0.73626    0.08609   1.00
C5       0.12507    0.77309    0.13334   1.00
H2       0.16938    0.72773    0.13274   1.00
H2       0.10702    0.78793    0.11077   1.00
H2       0.13896    0.79657    0.15101   1.00
C5       0.09940    0.74678    0.15931   1.00
H2       0.08829    0.72179    0.14189   1.00
H2       0.07408    0.76340    0.17109   1.00
H2       0.11604    0.73560    0.18506   1.00
C5       0.25962    0.87632    0.00980   1.00
H2       0.27438    0.89517    -0.01218   1.00
H2       0.28257    0.86611    0.03045   1.00
C5       0.22802    0.89929    0.03197   1.00
H2       0.24043    0.92701    0.04334   1.00
C5       0.73330    0.37591    0.63227   1.00
H2       0.70802    0.36261    0.64755   1.00
H2       0.72076    0.39690    0.61099   1.00
C5       0.75935    0.39749    0.66219   1.00
H2       0.74729    0.42690    0.66890   1.00
H2       0.78943    0.40082    0.65040   1.00
O_3      0.81752    0.27115    0.48000   1.00
C4       0.74963    0.24975    0.52100   1.00
C3c      0.73859    0.28288    0.54243   1.00
H1       0.72973    0.30908    0.52725   1.00
C3d      0.76053    0.21573    0.54135   1.00
C3       0.73929    0.28301    0.58354   1.00
O2       0.72359    0.31476    0.60248   1.00
C3       0.76198    0.21600    0.58227   1.00
H1       0.77185    0.18968    0.59657   1.00
C2       0.75131    0.24940    0.60439   1.00
C5       0.84552    0.24095    0.47879   1.00
H2       0.85458    0.23380    0.44838   1.00
H2       0.83409    0.21380    0.49266   1.00
C5       0.88117    0.25480    0.50122   1.00
H2       0.87192    0.26299    0.53129   1.00
H2       0.89255    0.28170    0.48691   1.00
C5       0.91268    0.22304    0.50254   1.00
H2       0.92186    0.21452    0.47260   1.00
H2       0.90179    0.19665    0.51803   1.00
H2       0.93884    0.23399    0.51830   1.00
C5       0.74289    0.15916    0.51105   1.00
C5       0.75325    0.34224    0.61070   1.00
H2       0.72259    0.17448    0.49088   1.00
H2       0.72613    0.14918    0.53712   1.00
H2       0.76662    0.35293    0.58300   1.00
H2       0.77723    0.32968    0.62895   1.00
H2       0.76062    0.38140    0.69055   1.00
H2       0.71686    0.11758    0.44250   1.00
H2       0.70324    0.09331    0.48766   1.00
C2       0.75234    0.24893    0.39605   1.00
C3       0.71737    0.24010    0.41597   1.00
O2       0.68702    0.22194    0.39674   1.00
C3       0.78541    0.25979    0.41826   1.00
H1       0.81232    0.26770    0.40385   1.00
C3a      0.71649    0.24130    0.45713   1.00
H1       0.69016    0.23231    0.47202   1.00
C3b      0.78478    0.25974    0.45922   1.00
C4       0.75018    0.25038    0.47900   1.00
O_3      0.77447    0.18334    0.52167   1.00
C5       0.65779    0.24933    0.38720   1.00
H2       0.64592    0.26374    0.41391   1.00
C5       0.62507    0.22691    0.36666   1.00
H2       0.66938    0.27227    0.36726   1.00
H2       0.60702    0.21207    0.38923   1.00
H2       0.63896    0.20343    0.34899   1.00
C5       0.59940    0.25322    0.34069   1.00
H2       0.58829    0.27821    0.35811   1.00
H2       0.57408    0.23660    0.32891   1.00
H2       0.61604    0.26440    0.31494   1.00
C5       0.75962    0.12368    0.49020   1.00
H2       0.77438    0.10483    0.51218   1.00
H2       0.78257    0.13389    0.46955   1.00
C5       0.72802    0.10071    0.46803   1.00
H2       0.74043    0.07299    0.45666   1.00
C5       0.87591    0.63227    0.23330   1.00
H2       0.86261    0.64755    0.20802   1.00
H2       0.89690    0.61099    0.22076   1.00
C5       0.89749    0.66219    0.25935   1.00
H2       0.92690    0.66890    0.24729   1.00
H2       0.90082    0.65040    0.28943   1.00
O_3      0.77115    0.48000    0.31752   1.00
C4       0.74975    0.52100    0.24963   1.00
C3c      0.78288    0.54243    0.23859   1.00
H1       0.80908    0.52725    0.22973   1.00
C3d      0.71573    0.54135    0.26053   1.00
C3       0.78301    0.58354    0.23929   1.00
O2       0.81476    0.60248    0.22359   1.00
C3       0.71600    0.58227    0.26198   1.00
H1       0.68968    0.59657    0.27185   1.00
C2       0.74940    0.60439    0.25131   1.00
C5       0.74095    0.47879    0.34552   1.00
H2       0.73380    0.44838    0.35458   1.00
H2       0.71380    0.49266    0.33409   1.00
C5       0.75480    0.50122    0.38117   1.00
H2       0.76299    0.53129    0.37192   1.00
H2       0.78170    0.48691    0.39255   1.00
C5       0.72304    0.50254    0.41268   1.00
H2       0.71452    0.47260    0.42186   1.00
H2       0.69665    0.51803    0.40179   1.00
H2       0.73399    0.51830    0.43884   1.00
C5       0.65916    0.51105    0.24289   1.00
C5       0.84224    0.61070    0.25325   1.00
H2       0.67448    0.49088    0.22259   1.00
H2       0.64918    0.53712    0.22613   1.00
H2       0.85293    0.58300    0.26662   1.00
H2       0.82968    0.62895    0.27723   1.00
H2       0.88140    0.69055    0.26062   1.00
H2       0.61758    0.44250    0.21686   1.00
H2       0.59331    0.48766    0.20324   1.00
C2       0.74893    0.39605    0.25234   1.00
C3       0.74010    0.41597    0.21737   1.00
O2       0.72194    0.39674    0.18702   1.00
C3       0.75979    0.41826    0.28541   1.00
H1       0.76770    0.40385    0.31232   1.00
C3a      0.74130    0.45713    0.21649   1.00
H1       0.73231    0.47202    0.19016   1.00
C3b      0.75974    0.45922    0.28478   1.00
C4       0.75038    0.47900    0.25018   1.00
O_3      0.68334    0.52167    0.27447   1.00
C5       0.74933    0.38720    0.15779   1.00
H2       0.76374    0.41391    0.14592   1.00
C5       0.72691    0.36666    0.12507   1.00
H2       0.77227    0.36726    0.16938   1.00
H2       0.71207    0.38923    0.10702   1.00
H2       0.70343    0.34899    0.13896   1.00
C5       0.75322    0.34069    0.09940   1.00
H2       0.77821    0.35811    0.08829   1.00
H2       0.73660    0.32891    0.07408   1.00
H2       0.76440    0.31494    0.11604   1.00
C5       0.62368    0.49020    0.25962   1.00
H2       0.60483    0.51218    0.27438   1.00
H2       0.63389    0.46955    0.28257   1.00
C5       0.60071    0.46803    0.22802   1.00
H2       0.57299    0.45666    0.24043   1.00
C5       0.36773    0.23330    0.12409   1.00
H2       0.35245    0.20802    0.13739   1.00
H2       0.38901    0.22076    0.10310   1.00
C5       0.33781    0.25935    0.10251   1.00
H2       0.33110    0.24729    0.07310   1.00
H2       0.34960    0.28943    0.09918   1.00
O_3      0.52000    0.31752    0.22885   1.00
C4       0.47900    0.24963    0.25025   1.00
C3c      0.45757    0.23859    0.21712   1.00
H1       0.47275    0.22973    0.19092   1.00
C3d      0.45865    0.26053    0.28427   1.00
C3       0.41646    0.23929    0.21699   1.00
O2       0.39752    0.22359    0.18524   1.00
C3       0.41773    0.26198    0.28400   1.00
H1       0.40343    0.27185    0.31032   1.00
C2       0.39561    0.25131    0.25060   1.00
C5       0.52121    0.34552    0.25905   1.00
H2       0.55162    0.35458    0.26620   1.00
H2       0.50734    0.33409    0.28620   1.00
C5       0.49878    0.38117    0.24520   1.00
H2       0.46871    0.37192    0.23701   1.00
H2       0.51309    0.39255    0.21830   1.00
C5       0.49746    0.41268    0.27696   1.00
H2       0.52740    0.42186    0.28548   1.00
H2       0.48197    0.40179    0.30335   1.00
H2       0.48170    0.43884    0.26601   1.00
C5       0.48895    0.24289    0.34084   1.00
C5       0.38930    0.25325    0.15776   1.00
H2       0.50912    0.22259    0.32552   1.00
H2       0.46288    0.22613    0.35082   1.00
H2       0.41700    0.26662    0.14707   1.00
H2       0.37105    0.27723    0.17032   1.00
H2       0.30945    0.26062    0.11860   1.00
H2       0.55750    0.21686    0.38242   1.00
H2       0.51234    0.20324    0.40669   1.00
C2       0.60395    0.25234    0.25107   1.00
C3       0.58403    0.21737    0.25990   1.00
O2       0.60326    0.18702    0.27806   1.00
C3       0.58174    0.28541    0.24021   1.00
H1       0.59615    0.31232    0.23230   1.00
C3a      0.54287    0.21649    0.25870   1.00
H1       0.52798    0.19016    0.26769   1.00
C3b      0.54078    0.28478    0.24026   1.00
C4       0.52100    0.25018    0.24962   1.00
O_3      0.47833    0.27447    0.31666   1.00
C5       0.61280    0.15779    0.25067   1.00
H2       0.58609    0.14592    0.23626   1.00
C5       0.63334    0.12507    0.27309   1.00
H2       0.63274    0.16938    0.22773   1.00
H2       0.61077    0.10702    0.28793   1.00
H2       0.65101    0.13896    0.29657   1.00
C5       0.65931    0.09940    0.24678   1.00
H2       0.64189    0.08829    0.22179   1.00
H2       0.67109    0.07408    0.26340   1.00
H2       0.68506    0.11604    0.23560   1.00
C5       0.50980    0.25962    0.37632   1.00
H2       0.48782    0.27438    0.39517   1.00
H2       0.53045    0.28257    0.36611   1.00
C5       0.53197    0.22802    0.39929   1.00
H2       0.54334    0.24043    0.42701   1.00
C5       1.13227    0.23330    0.37591   1.00
H2       1.14755    0.20802    0.36261   1.00
H2       1.11099    0.22076    0.39690   1.00
C5       1.16219    0.25935    0.39749   1.00
H2       1.16890    0.24729    0.42690   1.00
H2       1.15040    0.28943    0.40082   1.00
O_3      0.98000    0.31752    0.27115   1.00
C4       1.02100    0.24963    0.24975   1.00
C3c      1.04243    0.23859    0.28288   1.00
H1       1.02725    0.22973    0.30908   1.00
C3d      1.04135    0.26053    0.21573   1.00
C3       1.08354    0.23929    0.28301   1.00
O2       1.10248    0.22359    0.31476   1.00
C3       1.08227    0.26198    0.21600   1.00
H1       1.09657    0.27185    0.18968   1.00
C2       1.10439    0.25131    0.24940   1.00
C5       0.97879    0.34552    0.24095   1.00
H2       0.94838    0.35458    0.23380   1.00
H2       0.99266    0.33409    0.21380   1.00
C5       1.00122    0.38117    0.25480   1.00
H2       1.03129    0.37192    0.26299   1.00
H2       0.98691    0.39255    0.28170   1.00
C5       1.00254    0.41268    0.22304   1.00
H2       0.97260    0.42186    0.21452   1.00
H2       1.01803    0.40179    0.19665   1.00
H2       1.01830    0.43884    0.23399   1.00
C5       1.01105    0.24289    0.15916   1.00
C5       1.11070    0.25325    0.34224   1.00
H2       0.99088    0.22259    0.17448   1.00
H2       1.03712    0.22613    0.14918   1.00
H2       1.08300    0.26662    0.35293   1.00
H2       1.12895    0.27723    0.32968   1.00
H2       1.19055    0.26062    0.38140   1.00
H2       0.94250    0.21686    0.11758   1.00
H2       0.98766    0.20324    0.09331   1.00
C2       0.89605    0.25234    0.24893   1.00
C3       0.91597    0.21737    0.24010   1.00
O2       0.89674    0.18702    0.22194   1.00
C3       0.91826    0.28541    0.25979   1.00
H1       0.90385    0.31232    0.26770   1.00
C3a      0.95713    0.21649    0.24130   1.00
H1       0.97202    0.19016    0.23231   1.00
C3b      0.95922    0.28478    0.25974   1.00
C4       0.97900    0.25018    0.25038   1.00
O_3      1.02167    0.27447    0.18334   1.00
C5       0.88720    0.15779    0.24933   1.00
H2       0.91391    0.14592    0.26374   1.00
C5       0.86666    0.12507    0.22691   1.00
H2       0.86726    0.16938    0.27227   1.00
H2       0.88923    0.10702    0.21207   1.00
H2       0.84899    0.13896    0.20343   1.00
C5       0.84069    0.09940    0.25322   1.00
H2       0.85811    0.08829    0.27821   1.00
H2       0.82891    0.07408    0.23660   1.00
H2       0.81494    0.11604    0.26440   1.00
C5       0.99020    0.25962    0.12368   1.00
H2       1.01218    0.27438    0.10483   1.00
H2       0.96955    0.28257    0.13389   1.00
C5       0.96803    0.22802    0.10071   1.00
H2       0.95666    0.24043    0.07299   1.00
C5       0.62409    -0.13227   0.23330   1.00
H2       0.63739    -0.14755   0.20802   1.00
H2       0.60310    -0.11099   0.22076   1.00
C5       0.60251    -0.16219   0.25935   1.00
H2       0.57310    -0.16890   0.24729   1.00
H2       0.59918    -0.15040   0.28943   1.00
O_3      0.72885    0.02000    0.31752   1.00
C4       0.75025    -0.02100   0.24963   1.00
C3c      0.71712    -0.04243   0.23859   1.00
H1       0.69092    -0.02725   0.22973   1.00
C3d      0.78427    -0.04135   0.26053   1.00
C3       0.71699    -0.08354   0.23929   1.00
O2       0.68524    -0.10248   0.22359   1.00
C3       0.78400    -0.08227   0.26198   1.00
H1       0.81032    -0.09657   0.27185   1.00
C2       0.75060    -0.10439   0.25131   1.00
C5       0.75905    0.02121    0.34552   1.00
H2       0.76620    0.05162    0.35458   1.00
H2       0.78620    0.00734    0.33409   1.00
C5       0.74520    -0.00122   0.38117   1.00
H2       0.73701    -0.03129   0.37192   1.00
H2       0.71830    0.01309    0.39255   1.00
C5       0.77696    -0.00254   0.41268   1.00
H2       0.78548    0.02740    0.42186   1.00
H2       0.80335    -0.01803   0.40179   1.00
H2       0.76601    -0.01830   0.43884   1.00
C5       0.84084    -0.01105   0.24289   1.00
C5       0.65776    -0.11070   0.25325   1.00
H2       0.82552    0.00912    0.22259   1.00
H2       0.85082    -0.03712   0.22613   1.00
H2       0.64707    -0.08300   0.26662   1.00
H2       0.67032    -0.12895   0.27723   1.00
H2       0.61860    -0.19055   0.26062   1.00
H2       0.88242    0.05750    0.21686   1.00
H2       0.90669    0.01234    0.20324   1.00
C2       0.75107    0.10395    0.25234   1.00
C3       0.75990    0.08403    0.21737   1.00
O2       0.77806    0.10326    0.18702   1.00
C3       0.74021    0.08174    0.28541   1.00
H1       0.73230    0.09615    0.31232   1.00
C3a      0.75870    0.04287    0.21649   1.00
H1       0.76769    0.02798    0.19016   1.00
C3b      0.74026    0.04078    0.28478   1.00
C4       0.74962    0.02100    0.25018   1.00
O_3      0.81666    -0.02167   0.27447   1.00
C5       0.75067    0.11280    0.15779   1.00
H2       0.73626    0.08609    0.14592   1.00
C5       0.77309    0.13334    0.12507   1.00
H2       0.72773    0.13274    0.16938   1.00
H2       0.78793    0.11077    0.10702   1.00
H2       0.79657    0.15101    0.13896   1.00
C5       0.74678    0.15931    0.09940   1.00
H2       0.72179    0.14189    0.08829   1.00
H2       0.76340    0.17109    0.07408   1.00
H2       0.73560    0.18506    0.11604   1.00
C5       0.87632    0.00980    0.25962   1.00
H2       0.89517    -0.01218   0.27438   1.00
H2       0.86611    0.03045    0.28257   1.00
C5       0.89929    0.03197    0.22802   1.00
H2       0.92701    0.04334    0.24043   1.00
C5       0.73330    0.12409    -0.13227   1.00
H2       0.70802    0.13739    -0.14755   1.00
H2       0.72076    0.10310    -0.11099   1.00
C5       0.75935    0.10251    -0.16219   1.00
H2       0.74729    0.07310    -0.16890   1.00
H2       0.78943    0.09918    -0.15040   1.00
O_3      0.81752    0.22885    0.02000   1.00
C4       0.74963    0.25025    -0.02100   1.00
C3c      0.73859    0.21712    -0.04243   1.00
H1       0.72973    0.19092    -0.02725   1.00
C3d      0.76053    0.28427    -0.04135   1.00
C3       0.73929    0.21699    -0.08354   1.00
O2       0.72359    0.18524    -0.10248   1.00
C3       0.76198    0.28400    -0.08227   1.00
H1       0.77185    0.31032    -0.09657   1.00
C2       0.75131    0.25060    -0.10439   1.00
C5       0.84552    0.25905    0.02121   1.00
H2       0.85458    0.26620    0.05162   1.00
H2       0.83409    0.28620    0.00734   1.00
C5       0.88117    0.24520    -0.00122   1.00
H2       0.87192    0.23701    -0.03129   1.00
H2       0.89255    0.21830    0.01309   1.00
C5       0.91268    0.27696    -0.00254   1.00
H2       0.92186    0.28548    0.02740   1.00
H2       0.90179    0.30335    -0.01803   1.00
H2       0.93884    0.26601    -0.01830   1.00
C5       0.74289    0.34084    -0.01105   1.00
C5       0.75325    0.15776    -0.11070   1.00
H2       0.72259    0.32552    0.00912   1.00
H2       0.72613    0.35082    -0.03712   1.00
H2       0.76662    0.14707    -0.08300   1.00
H2       0.77723    0.17032    -0.12895   1.00
H2       0.76062    0.11860    -0.19055   1.00
H2       0.71686    0.38242    0.05750   1.00
H2       0.70324    0.40669    0.01234   1.00
C2       0.75234    0.25107    0.10395   1.00
C3       0.71737    0.25990    0.08403   1.00
O2       0.68702    0.27806    0.10326   1.00
C3       0.78541    0.24021    0.08174   1.00
H1       0.81232    0.23230    0.09615   1.00
C3a      0.71649    0.25870    0.04287   1.00
H1       0.69016    0.26769    0.02798   1.00
C3b      0.78478    0.24026    0.04078   1.00
C4       0.75018    0.24962    0.02100   1.00
O_3      0.77447    0.31666    -0.02167   1.00
C5       0.65779    0.25067    0.11280   1.00
H2       0.64592    0.23626    0.08609   1.00
C5       0.62507    0.27309    0.13334   1.00
H2       0.66938    0.22773    0.13274   1.00
H2       0.60702    0.28793    0.11077   1.00
H2       0.63896    0.29657    0.15101   1.00
C5       0.59940    0.24678    0.15931   1.00
H2       0.58829    0.22179    0.14189   1.00
H2       0.57408    0.26340    0.17109   1.00
H2       0.61604    0.23560    0.18506   1.00
C5       0.75962    0.37632    0.00980   1.00
H2       0.77438    0.39517    -0.01218   1.00
H2       0.78257    0.36611    0.03045   1.00
C5       0.72802    0.39929    0.03197   1.00
H2       0.74043    0.42701    0.04334   1.00
C5       0.98330    1.12591    1.38227   1.00
H2       0.95802    1.11261    1.39755   1.00
H2       0.97076    1.14690    1.36099   1.00
C5       1.00935    1.14749    1.41219   1.00
H2       0.99729    1.17690    1.41890   1.00
H2       1.03943    1.15082    1.40040   1.00
O_3      1.06752    1.02115    1.23000   1.00
C4       0.99963    0.99975    1.27100   1.00
C3c      0.98859    1.03288    1.29243   1.00
H1       0.97973    1.05908    1.27725   1.00
C3d      1.01053    0.96573    1.29135   1.00
C3       0.98929    1.03301    1.33354   1.00
O2       0.97359    1.06476    1.35248   1.00
C3       1.01198    0.96600    1.33227   1.00
H1       1.02185    0.93968    1.34657   1.00
C2       1.00131    0.99940    1.35439   1.00
C5       1.09552    0.99095    1.22879   1.00
H2       1.10458    0.98380    1.19838   1.00
H2       1.08409    0.96380    1.24266   1.00
C5       1.13117    1.00480    1.25122   1.00
H2       1.12192    1.01299    1.28129   1.00
H2       1.14255    1.03170    1.23691   1.00
C5       1.16268    0.97304    1.25254   1.00
H2       1.17186    0.96452    1.22260   1.00
H2       1.15179    0.94665    1.26803   1.00
H2       1.18884    0.98399    1.26830   1.00
C5       0.99289    0.90916    1.26105   1.00
C5       1.00325    1.09224    1.36070   1.00
H2       0.97259    0.92448    1.24088   1.00
H2       0.97613    0.89918    1.28712   1.00
H2       1.01662    1.10293    1.33300   1.00
H2       1.02723    1.07968    1.37895   1.00
H2       1.01062    1.13140    1.44055   1.00
H2       0.96686    0.86758    1.19250   1.00
H2       0.95324    0.84331    1.23766   1.00
C2       1.00234    0.99893    1.14605   1.00
C3       0.96737    0.99010    1.16597   1.00
O2       0.93702    0.97194    1.14674   1.00
C3       1.03541    1.00979    1.16826   1.00
H1       1.06232    1.01770    1.15385   1.00
C3a      0.96649    0.99130    1.20713   1.00
H1       0.94016    0.98231    1.22202   1.00
C3b      1.03478    1.00974    1.20922   1.00
C4       1.00018    1.00038    1.22900   1.00
O_3      1.02447    0.93334    1.27167   1.00
C5       0.90779    0.99933    1.13720   1.00
H2       0.89592    1.01374    1.16391   1.00
C5       0.87507    0.97691    1.11666   1.00
H2       0.91938    1.02227    1.11726   1.00
H2       0.85702    0.96207    1.13923   1.00
H2       0.88896    0.95343    1.09899   1.00
C5       0.84940    1.00322    1.09069   1.00
H2       0.83829    1.02821    1.10811   1.00
H2       0.82408    0.98660    1.07891   1.00
H2       0.86604    1.01440    1.06494   1.00
C5       1.00962    0.87368    1.24020   1.00
H2       1.02438    0.85483    1.26218   1.00
H2       1.03257    0.88389    1.21955   1.00
C5       0.97802    0.85071    1.21803   1.00
H2       0.99043    0.82299    1.20666   1.00
C5       1.12591    1.38227    0.98330   1.00
H2       1.11261    1.39755    0.95802   1.00
H2       1.14690    1.36099    0.97076   1.00
C5       1.14749    1.41219    1.00935   1.00
H2       1.17690    1.41890    0.99729   1.00
H2       1.15082    1.40040    1.03943   1.00
O_3      1.02115    1.23000    1.06752   1.00
C4       0.99975    1.27100    0.99963   1.00
C3c      1.03288    1.29243    0.98859   1.00
H1       1.05908    1.27725    0.97973   1.00
C3d      0.96573    1.29135    1.01053   1.00
C3       1.03301    1.33354    0.98929   1.00
O2       1.06476    1.35248    0.97359   1.00
C3       0.96600    1.33227    1.01198   1.00
H1       0.93968    1.34657    1.02185   1.00
C2       0.99940    1.35439    1.00131   1.00
C5       0.99095    1.22879    1.09552   1.00
H2       0.98380    1.19838    1.10458   1.00
H2       0.96380    1.24266    1.08409   1.00
C5       1.00480    1.25122    1.13117   1.00
H2       1.01299    1.28129    1.12192   1.00
H2       1.03170    1.23691    1.14255   1.00
C5       0.97304    1.25254    1.16268   1.00
H2       0.96452    1.22260    1.17186   1.00
H2       0.94665    1.26803    1.15179   1.00
H2       0.98399    1.26830    1.18884   1.00
C5       0.90916    1.26105    0.99289   1.00
C5       1.09224    1.36070    1.00325   1.00
H2       0.92448    1.24088    0.97259   1.00
H2       0.89918    1.28712    0.97613   1.00
H2       1.10293    1.33300    1.01662   1.00
H2       1.07968    1.37895    1.02723   1.00
H2       1.13140    1.44055    1.01062   1.00
H2       0.86758    1.19250    0.96686   1.00
H2       0.84331    1.23766    0.95324   1.00
C2       0.99893    1.14605    1.00234   1.00
C3       0.99010    1.16597    0.96737   1.00
O2       0.97194    1.14674    0.93702   1.00
C3       1.00979    1.16826    1.03541   1.00
H1       1.01770    1.15385    1.06232   1.00
C3a      0.99130    1.20713    0.96649   1.00
H1       0.98231    1.22202    0.94016   1.00
C3b      1.00974    1.20922    1.03478   1.00
C4       1.00038    1.22900    1.00018   1.00
O_3      0.93334    1.27167    1.02447   1.00
C5       0.99933    1.13720    0.90779   1.00
H2       1.01374    1.16391    0.89592   1.00
C5       0.97691    1.11666    0.87507   1.00
H2       1.02227    1.11726    0.91938   1.00
H2       0.96207    1.13923    0.85702   1.00
H2       0.95343    1.09899    0.88896   1.00
C5       1.00322    1.09069    0.84940   1.00
H2       1.02821    1.10811    0.83829   1.00
H2       0.98660    1.07891    0.82408   1.00
H2       1.01440    1.06494    0.86604   1.00
C5       0.87368    1.24020    1.00962   1.00
H2       0.85483    1.26218    1.02438   1.00
H2       0.88389    1.21955    1.03257   1.00
C5       0.85071    1.21803    0.97802   1.00
H2       0.82299    1.20666    0.99043   1.00
C5       0.61773    0.98330    0.87409   1.00
H2       0.60245    0.95802    0.88739   1.00
H2       0.63901    0.97076    0.85310   1.00
C5       0.58781    1.00935    0.85251   1.00
H2       0.58110    0.99729    0.82310   1.00
H2       0.59960    1.03943    0.84918   1.00
O_3      0.77000    1.06752    0.97885   1.00
C4       0.72900    0.99963    1.00025   1.00
C3c      0.70757    0.98859    0.96712   1.00
H1       0.72275    0.97973    0.94092   1.00
C3d      0.70865    1.01053    1.03427   1.00
C3       0.66646    0.98929    0.96699   1.00
O2       0.64752    0.97359    0.93524   1.00
C3       0.66773    1.01198    1.03400   1.00
H1       0.65343    1.02185    1.06032   1.00
C2       0.64561    1.00131    1.00060   1.00
C5       0.77121    1.09552    1.00905   1.00
H2       0.80162    1.10458    1.01620   1.00
H2       0.75734    1.08409    1.03620   1.00
C5       0.74878    1.13117    0.99520   1.00
H2       0.71871    1.12192    0.98701   1.00
H2       0.76309    1.14255    0.96830   1.00
C5       0.74746    1.16268    1.02696   1.00
H2       0.77740    1.17186    1.03548   1.00
H2       0.73197    1.15179    1.05335   1.00
H2       0.73170    1.18884    1.01601   1.00
C5       0.73895    0.99289    1.09084   1.00
C5       0.63930    1.00325    0.90776   1.00
H2       0.75912    0.97259    1.07552   1.00
H2       0.71288    0.97613    1.10082   1.00
H2       0.66700    1.01662    0.89707   1.00
H2       0.62105    1.02723    0.92032   1.00
H2       0.55945    1.01062    0.86860   1.00
H2       0.80750    0.96686    1.13242   1.00
H2       0.76234    0.95324    1.15669   1.00
C2       0.85395    1.00234    1.00107   1.00
C3       0.83403    0.96737    1.00990   1.00
O2       0.85326    0.93702    1.02806   1.00
C3       0.83174    1.03541    0.99021   1.00
H1       0.84615    1.06232    0.98230   1.00
C3a      0.79287    0.96649    1.00870   1.00
H1       0.77798    0.94016    1.01769   1.00
C3b      0.79078    1.03478    0.99026   1.00
C4       0.77100    1.00018    0.99962   1.00
O_3      0.72833    1.02447    1.06666   1.00
C5       0.86280    0.90779    1.00067   1.00
H2       0.83609    0.89592    0.98626   1.00
C5       0.88334    0.87507    1.02309   1.00
H2       0.88274    0.91938    0.97773   1.00
H2       0.86077    0.85702    1.03793   1.00
H2       0.90101    0.88896    1.04657   1.00
C5       0.90931    0.84940    0.99678   1.00
H2       0.89189    0.83829    0.97179   1.00
H2       0.92109    0.82408    1.01340   1.00
H2       0.93506    0.86604    0.98560   1.00
C5       0.75980    1.00962    1.12632   1.00
H2       0.73782    1.02438    1.14517   1.00
H2       0.78045    1.03257    1.11611   1.00
C5       0.78197    0.97802    1.14929   1.00
H2       0.79334    0.99043    1.17701   1.00
C5       1.38227    0.98330    1.12591   1.00
H2       1.39755    0.95802    1.11261   1.00
H2       1.36099    0.97076    1.14690   1.00
C5       1.41219    1.00935    1.14749   1.00
H2       1.41890    0.99729    1.17690   1.00
H2       1.40040    1.03943    1.15082   1.00
O_3      1.23000    1.06752    1.02115   1.00
C4       1.27100    0.99963    0.99975   1.00
C3c      1.29243    0.98859    1.03288   1.00
H1       1.27725    0.97973    1.05908   1.00
C3d      1.29135    1.01053    0.96573   1.00
C3       1.33354    0.98929    1.03301   1.00
O2       1.35248    0.97359    1.06476   1.00
C3       1.33227    1.01198    0.96600   1.00
H1       1.34657    1.02185    0.93968   1.00
C2       1.35439    1.00131    0.99940   1.00
C5       1.22879    1.09552    0.99095   1.00
H2       1.19838    1.10458    0.98380   1.00
H2       1.24266    1.08409    0.96380   1.00
C5       1.25122    1.13117    1.00480   1.00
H2       1.28129    1.12192    1.01299   1.00
H2       1.23691    1.14255    1.03170   1.00
C5       1.25254    1.16268    0.97304   1.00
H2       1.22260    1.17186    0.96452   1.00
H2       1.26803    1.15179    0.94665   1.00
H2       1.26830    1.18884    0.98399   1.00
C5       1.26105    0.99289    0.90916   1.00
C5       1.36070    1.00325    1.09224   1.00
H2       1.24088    0.97259    0.92448   1.00
H2       1.28712    0.97613    0.89918   1.00
H2       1.33300    1.01662    1.10293   1.00
H2       1.37895    1.02723    1.07968   1.00
H2       1.44055    1.01062    1.13140   1.00
H2       1.19250    0.96686    0.86758   1.00
H2       1.23766    0.95324    0.84331   1.00
C2       1.14605    1.00234    0.99893   1.00
C3       1.16597    0.96737    0.99010   1.00
O2       1.14674    0.93702    0.97194   1.00
C3       1.16826    1.03541    1.00979   1.00
H1       1.15385    1.06232    1.01770   1.00
C3a      1.20713    0.96649    0.99130   1.00
H1       1.22202    0.94016    0.98231   1.00
C3b      1.20922    1.03478    1.00974   1.00
C4       1.22900    1.00018    1.00038   1.00
O_3      1.27167    1.02447    0.93334   1.00
C5       1.13720    0.90779    0.99933   1.00
H2       1.16391    0.89592    1.01374   1.00
C5       1.11666    0.87507    0.97691   1.00
H2       1.11726    0.91938    1.02227   1.00
H2       1.13923    0.85702    0.96207   1.00
H2       1.09899    0.88896    0.95343   1.00
C5       1.09069    0.84940    1.00322   1.00
H2       1.10811    0.83829    1.02821   1.00
H2       1.07891    0.82408    0.98660   1.00
H2       1.06494    0.86604    1.01440   1.00
C5       1.24020    1.00962    0.87368   1.00
H2       1.26218    1.02438    0.85483   1.00
H2       1.21955    1.03257    0.88389   1.00
C5       1.21803    0.97802    0.85071   1.00
H2       1.20666    0.99043    0.82299   1.00
C5       0.87409    0.61773    0.98330   1.00
H2       0.88739    0.60245    0.95802   1.00
H2       0.85310    0.63901    0.97076   1.00
C5       0.85251    0.58781    1.00935   1.00
H2       0.82310    0.58110    0.99729   1.00
H2       0.84918    0.59960    1.03943   1.00
O_3      0.97885    0.77000    1.06752   1.00
C4       1.00025    0.72900    0.99963   1.00
C3c      0.96712    0.70757    0.98859   1.00
H1       0.94092    0.72275    0.97973   1.00
C3d      1.03427    0.70865    1.01053   1.00
C3       0.96699    0.66646    0.98929   1.00
O2       0.93524    0.64752    0.97359   1.00
C3       1.03400    0.66773    1.01198   1.00
H1       1.06032    0.65343    1.02185   1.00
C2       1.00060    0.64561    1.00131   1.00
C5       1.00905    0.77121    1.09552   1.00
H2       1.01620    0.80162    1.10458   1.00
H2       1.03620    0.75734    1.08409   1.00
C5       0.99520    0.74878    1.13117   1.00
H2       0.98701    0.71871    1.12192   1.00
H2       0.96830    0.76309    1.14255   1.00
C5       1.02696    0.74746    1.16268   1.00
H2       1.03548    0.77740    1.17186   1.00
H2       1.05335    0.73197    1.15179   1.00
H2       1.01601    0.73170    1.18884   1.00
C5       1.09084    0.73895    0.99289   1.00
C5       0.90776    0.63930    1.00325   1.00
H2       1.07552    0.75912    0.97259   1.00
H2       1.10082    0.71288    0.97613   1.00
H2       0.89707    0.66700    1.01662   1.00
H2       0.92032    0.62105    1.02723   1.00
H2       0.86860    0.55945    1.01062   1.00
H2       1.13242    0.80750    0.96686   1.00
H2       1.15669    0.76234    0.95324   1.00
C2       1.00107    0.85395    1.00234   1.00
C3       1.00990    0.83403    0.96737   1.00
O2       1.02806    0.85326    0.93702   1.00
C3       0.99021    0.83174    1.03541   1.00
H1       0.98230    0.84615    1.06232   1.00
C3a      1.00870    0.79287    0.96649   1.00
H1       1.01769    0.77798    0.94016   1.00
C3b      0.99026    0.79078    1.03478   1.00
C4       0.99962    0.77100    1.00018   1.00
O_3      1.06666    0.72833    1.02447   1.00
C5       1.00067    0.86280    0.90779   1.00
H2       0.98626    0.83609    0.89592   1.00
C5       1.02309    0.88334    0.87507   1.00
H2       0.97773    0.88274    0.91938   1.00
H2       1.03793    0.86077    0.85702   1.00
H2       1.04657    0.90101    0.88896   1.00
C5       0.99678    0.90931    0.84940   1.00
H2       0.97179    0.89189    0.83829   1.00
H2       1.01340    0.92109    0.82408   1.00
H2       0.98560    0.93506    0.86604   1.00
C5       1.12632    0.75980    1.00962   1.00
H2       1.14517    0.73782    1.02438   1.00
H2       1.11611    0.78045    1.03257   1.00
C5       1.14929    0.78197    0.97802   1.00
H2       1.17701    0.79334    0.99043   1.00
C5       0.98330    0.87409    0.61773   1.00
H2       0.95802    0.88739    0.60245   1.00
H2       0.97076    0.85310    0.63901   1.00
C5       1.00935    0.85251    0.58781   1.00
H2       0.99729    0.82310    0.58110   1.00
H2       1.03943    0.84918    0.59960   1.00
O_3      1.06752    0.97885    0.77000   1.00
C4       0.99963    1.00025    0.72900   1.00
C3c      0.98859    0.96712    0.70757   1.00
H1       0.97973    0.94092    0.72275   1.00
C3d      1.01053    1.03427    0.70865   1.00
C3       0.98929    0.96699    0.66646   1.00
O2       0.97359    0.93524    0.64752   1.00
C3       1.01198    1.03400    0.66773   1.00
H1       1.02185    1.06032    0.65343   1.00
C2       1.00131    1.00060    0.64561   1.00
C5       1.09552    1.00905    0.77121   1.00
H2       1.10458    1.01620    0.80162   1.00
H2       1.08409    1.03620    0.75734   1.00
C5       1.13117    0.99520    0.74878   1.00
H2       1.12192    0.98701    0.71871   1.00
H2       1.14255    0.96830    0.76309   1.00
C5       1.16268    1.02696    0.74746   1.00
H2       1.17186    1.03548    0.77740   1.00
H2       1.15179    1.05335    0.73197   1.00
H2       1.18884    1.01601    0.73170   1.00
C5       0.99289    1.09084    0.73895   1.00
C5       1.00325    0.90776    0.63930   1.00
H2       0.97259    1.07552    0.75912   1.00
H2       0.97613    1.10082    0.71288   1.00
H2       1.01662    0.89707    0.66700   1.00
H2       1.02723    0.92032    0.62105   1.00
H2       1.01062    0.86860    0.55945   1.00
H2       0.96686    1.13242    0.80750   1.00
H2       0.95324    1.15669    0.76234   1.00
C2       1.00234    1.00107    0.85395   1.00
C3       0.96737    1.00990    0.83403   1.00
O2       0.93702    1.02806    0.85326   1.00
C3       1.03541    0.99021    0.83174   1.00
H1       1.06232    0.98230    0.84615   1.00
C3a      0.96649    1.00870    0.79287   1.00
H1       0.94016    1.01769    0.77798   1.00
C3b      1.03478    0.99026    0.79078   1.00
C4       1.00018    0.99962    0.77100   1.00
O_3      1.02447    1.06666    0.72833   1.00
C5       0.90779    1.00067    0.86280   1.00
H2       0.89592    0.98626    0.83609   1.00
C5       0.87507    1.02309    0.88334   1.00
H2       0.91938    0.97773    0.88274   1.00
H2       0.85702    1.03793    0.86077   1.00
H2       0.88896    1.04657    0.90101   1.00
C5       0.84940    0.99678    0.90931   1.00
H2       0.83829    0.97179    0.89189   1.00
H2       0.82408    1.01340    0.92109   1.00
H2       0.86604    0.98560    0.93506   1.00
C5       1.00962    1.12632    0.75980   1.00
H2       1.02438    1.14517    0.73782   1.00
H2       1.03257    1.11611    0.78045   1.00
C5       0.97802    1.14929    0.78197   1.00
H2       0.99043    1.17701    0.79334   1.00
C5       0.48330    0.62591    1.38227   1.00
H2       0.45802    0.61261    1.39755   1.00
H2       0.47076    0.64690    1.36099   1.00
C5       0.50935    0.64749    1.41219   1.00
H2       0.49729    0.67690    1.41890   1.00
H2       0.53943    0.65082    1.40040   1.00
O_3      0.56752    0.52115    1.23000   1.00
C4       0.49963    0.49975    1.27100   1.00
C3c      0.48859    0.53288    1.29243   1.00
H1       0.47973    0.55908    1.27725   1.00
C3d      0.51053    0.46573    1.29135   1.00
C3       0.48929    0.53301    1.33354   1.00
O2       0.47359    0.56476    1.35248   1.00
C3       0.51198    0.46600    1.33227   1.00
H1       0.52185    0.43968    1.34657   1.00
C2       0.50131    0.49940    1.35439   1.00
C5       0.59552    0.49095    1.22879   1.00
H2       0.60458    0.48380    1.19838   1.00
H2       0.58409    0.46380    1.24266   1.00
C5       0.63117    0.50480    1.25122   1.00
H2       0.62192    0.51299    1.28129   1.00
H2       0.64255    0.53170    1.23691   1.00
C5       0.66268    0.47304    1.25254   1.00
H2       0.67186    0.46452    1.22260   1.00
H2       0.65179    0.44665    1.26803   1.00
H2       0.68884    0.48399    1.26830   1.00
C5       0.49289    0.40916    1.26105   1.00
C5       0.50325    0.59224    1.36070   1.00
H2       0.47259    0.42448    1.24088   1.00
H2       0.47613    0.39918    1.28712   1.00
H2       0.51662    0.60293    1.33300   1.00
H2       0.52723    0.57968    1.37895   1.00
H2       0.51062    0.63140    1.44055   1.00
H2       0.46686    0.36758    1.19250   1.00
H2       0.45324    0.34331    1.23766   1.00
C2       0.50234    0.49893    1.14605   1.00
C3       0.46737    0.49010    1.16597   1.00
O2       0.43702    0.47194    1.14674   1.00
C3       0.53541    0.50979    1.16826   1.00
H1       0.56232    0.51770    1.15385   1.00
C3a      0.46649    0.49130    1.20713   1.00
H1       0.44016    0.48231    1.22202   1.00
C3b      0.53478    0.50974    1.20922   1.00
C4       0.50018    0.50038    1.22900   1.00
O_3      0.52447    0.43334    1.27167   1.00
C5       0.40779    0.49933    1.13720   1.00
H2       0.39592    0.51374    1.16391   1.00
C5       0.37507    0.47691    1.11666   1.00
H2       0.41938    0.52227    1.11726   1.00
H2       0.35702    0.46207    1.13923   1.00
H2       0.38896    0.45343    1.09899   1.00
C5       0.34940    0.50322    1.09069   1.00
H2       0.33829    0.52821    1.10811   1.00
H2       0.32408    0.48660    1.07891   1.00
H2       0.36604    0.51440    1.06494   1.00
C5       0.50962    0.37368    1.24020   1.00
H2       0.52438    0.35483    1.26218   1.00
H2       0.53257    0.38389    1.21955   1.00
C5       0.47802    0.35071    1.21803   1.00
H2       0.49043    0.32299    1.20666   1.00
C5       0.62591    0.88227    0.98330   1.00
H2       0.61261    0.89755    0.95802   1.00
H2       0.64690    0.86099    0.97076   1.00
C5       0.64749    0.91219    1.00935   1.00
H2       0.67690    0.91890    0.99729   1.00
H2       0.65082    0.90040    1.03943   1.00
O_3      0.52115    0.73000    1.06752   1.00
C4       0.49975    0.77100    0.99963   1.00
C3c      0.53288    0.79243    0.98859   1.00
H1       0.55908    0.77725    0.97973   1.00
C3d      0.46573    0.79135    1.01053   1.00
C3       0.53301    0.83354    0.98929   1.00
O2       0.56476    0.85248    0.97359   1.00
C3       0.46600    0.83227    1.01198   1.00
H1       0.43968    0.84657    1.02185   1.00
C2       0.49940    0.85439    1.00131   1.00
C5       0.49095    0.72879    1.09552   1.00
H2       0.48380    0.69838    1.10458   1.00
H2       0.46380    0.74266    1.08409   1.00
C5       0.50480    0.75122    1.13117   1.00
H2       0.51299    0.78129    1.12192   1.00
H2       0.53170    0.73691    1.14255   1.00
C5       0.47304    0.75254    1.16268   1.00
H2       0.46452    0.72260    1.17186   1.00
H2       0.44665    0.76803    1.15179   1.00
H2       0.48399    0.76830    1.18884   1.00
C5       0.40916    0.76105    0.99289   1.00
C5       0.59224    0.86070    1.00325   1.00
H2       0.42448    0.74088    0.97259   1.00
H2       0.39918    0.78712    0.97613   1.00
H2       0.60293    0.83300    1.01662   1.00
H2       0.57968    0.87895    1.02723   1.00
H2       0.63140    0.94055    1.01062   1.00
H2       0.36758    0.69250    0.96686   1.00
H2       0.34331    0.73766    0.95324   1.00
C2       0.49893    0.64605    1.00234   1.00
C3       0.49010    0.66597    0.96737   1.00
O2       0.47194    0.64674    0.93702   1.00
C3       0.50979    0.66826    1.03541   1.00
H1       0.51770    0.65385    1.06232   1.00
C3a      0.49130    0.70713    0.96649   1.00
H1       0.48231    0.72202    0.94016   1.00
C3b      0.50974    0.70922    1.03478   1.00
C4       0.50038    0.72900    1.00018   1.00
O_3      0.43334    0.77167    1.02447   1.00
C5       0.49933    0.63720    0.90779   1.00
H2       0.51374    0.66391    0.89592   1.00
C5       0.47691    0.61666    0.87507   1.00
H2       0.52227    0.61726    0.91938   1.00
H2       0.46207    0.63923    0.85702   1.00
H2       0.45343    0.59899    0.88896   1.00
C5       0.50322    0.59069    0.84940   1.00
H2       0.52821    0.60811    0.83829   1.00
H2       0.48660    0.57891    0.82408   1.00
H2       0.51440    0.56494    0.86604   1.00
C5       0.37368    0.74020    1.00962   1.00
H2       0.35483    0.76218    1.02438   1.00
H2       0.38389    0.71955    1.03257   1.00
C5       0.35071    0.71803    0.97802   1.00
H2       0.32299    0.70666    0.99043   1.00
C5       0.11773    0.48330    0.87409   1.00
H2       0.10245    0.45802    0.88739   1.00
H2       0.13901    0.47076    0.85310   1.00
C5       0.08781    0.50935    0.85251   1.00
H2       0.08110    0.49729    0.82310   1.00
H2       0.09960    0.53943    0.84918   1.00
O_3      0.27000    0.56752    0.97885   1.00
C4       0.22900    0.49963    1.00025   1.00
C3c      0.20757    0.48859    0.96712   1.00
H1       0.22275    0.47973    0.94092   1.00
C3d      0.20865    0.51053    1.03427   1.00
C3       0.16646    0.48929    0.96699   1.00
O2       0.14752    0.47359    0.93524   1.00
C3       0.16773    0.51198    1.03400   1.00
H1       0.15343    0.52185    1.06032   1.00
C2       0.14561    0.50131    1.00060   1.00
C5       0.27121    0.59552    1.00905   1.00
H2       0.30162    0.60458    1.01620   1.00
H2       0.25734    0.58409    1.03620   1.00
C5       0.24878    0.63117    0.99520   1.00
H2       0.21871    0.62192    0.98701   1.00
H2       0.26309    0.64255    0.96830   1.00
C5       0.24746    0.66268    1.02696   1.00
H2       0.27740    0.67186    1.03548   1.00
H2       0.23197    0.65179    1.05335   1.00
H2       0.23170    0.68884    1.01601   1.00
C5       0.23895    0.49289    1.09084   1.00
C5       0.13930    0.50325    0.90776   1.00
H2       0.25912    0.47259    1.07552   1.00
H2       0.21288    0.47613    1.10082   1.00
H2       0.16700    0.51662    0.89707   1.00
H2       0.12105    0.52723    0.92032   1.00
H2       0.05945    0.51062    0.86860   1.00
H2       0.30750    0.46686    1.13242   1.00
H2       0.26234    0.45324    1.15669   1.00
C2       0.35395    0.50234    1.00107   1.00
C3       0.33403    0.46737    1.00990   1.00
O2       0.35326    0.43702    1.02806   1.00
C3       0.33174    0.53541    0.99021   1.00
H1       0.34615    0.56232    0.98230   1.00
C3a      0.29287    0.46649    1.00870   1.00
H1       0.27798    0.44016    1.01769   1.00
C3b      0.29078    0.53478    0.99026   1.00
C4       0.27100    0.50018    0.99962   1.00
O_3      0.22833    0.52447    1.06666   1.00
C5       0.36280    0.40779    1.00067   1.00
H2       0.33609    0.39592    0.98626   1.00
C5       0.38334    0.37507    1.02309   1.00
H2       0.38274    0.41938    0.97773   1.00
H2       0.36077    0.35702    1.03793   1.00
H2       0.40101    0.38896    1.04657   1.00
C5       0.40931    0.34940    0.99678   1.00
H2       0.39189    0.33829    0.97179   1.00
H2       0.42109    0.32408    1.01340   1.00
H2       0.43506    0.36604    0.98560   1.00
C5       0.25980    0.50962    1.12632   1.00
H2       0.23782    0.52438    1.14517   1.00
H2       0.28045    0.53257    1.11611   1.00
C5       0.28197    0.47802    1.14929   1.00
H2       0.29334    0.49043    1.17701   1.00
C5       0.88227    0.48330    1.12591   1.00
H2       0.89755    0.45802    1.11261   1.00
H2       0.86099    0.47076    1.14690   1.00
C5       0.91219    0.50935    1.14749   1.00
H2       0.91890    0.49729    1.17690   1.00
H2       0.90040    0.53943    1.15082   1.00
O_3      0.73000    0.56752    1.02115   1.00
C4       0.77100    0.49963    0.99975   1.00
C3c      0.79243    0.48859    1.03288   1.00
H1       0.77725    0.47973    1.05908   1.00
C3d      0.79135    0.51053    0.96573   1.00
C3       0.83354    0.48929    1.03301   1.00
O2       0.85248    0.47359    1.06476   1.00
C3       0.83227    0.51198    0.96600   1.00
H1       0.84657    0.52185    0.93968   1.00
C2       0.85439    0.50131    0.99940   1.00
C5       0.72879    0.59552    0.99095   1.00
H2       0.69838    0.60458    0.98380   1.00
H2       0.74266    0.58409    0.96380   1.00
C5       0.75122    0.63117    1.00480   1.00
H2       0.78129    0.62192    1.01299   1.00
H2       0.73691    0.64255    1.03170   1.00
C5       0.75254    0.66268    0.97304   1.00
H2       0.72260    0.67186    0.96452   1.00
H2       0.76803    0.65179    0.94665   1.00
H2       0.76830    0.68884    0.98399   1.00
C5       0.76105    0.49289    0.90916   1.00
C5       0.86070    0.50325    1.09224   1.00
H2       0.74088    0.47259    0.92448   1.00
H2       0.78712    0.47613    0.89918   1.00
H2       0.83300    0.51662    1.10293   1.00
H2       0.87895    0.52723    1.07968   1.00
H2       0.94055    0.51062    1.13140   1.00
H2       0.69250    0.46686    0.86758   1.00
H2       0.73766    0.45324    0.84331   1.00
C2       0.64605    0.50234    0.99893   1.00
C3       0.66597    0.46737    0.99010   1.00
O2       0.64674    0.43702    0.97194   1.00
C3       0.66826    0.53541    1.00979   1.00
H1       0.65385    0.56232    1.01770   1.00
C3a      0.70713    0.46649    0.99130   1.00
H1       0.72202    0.44016    0.98231   1.00
C3b      0.70922    0.53478    1.00974   1.00
C4       0.72900    0.50018    1.00038   1.00
O_3      0.77167    0.52447    0.93334   1.00
C5       0.63720    0.40779    0.99933   1.00
H2       0.66391    0.39592    1.01374   1.00
C5       0.61666    0.37507    0.97691   1.00
H2       0.61726    0.41938    1.02227   1.00
H2       0.63923    0.35702    0.96207   1.00
H2       0.59899    0.38896    0.95343   1.00
C5       0.59069    0.34940    1.00322   1.00
H2       0.60811    0.33829    1.02821   1.00
H2       0.57891    0.32408    0.98660   1.00
H2       0.56494    0.36604    1.01440   1.00
C5       0.74020    0.50962    0.87368   1.00
H2       0.76218    0.52438    0.85483   1.00
H2       0.71955    0.53257    0.88389   1.00
C5       0.71803    0.47802    0.85071   1.00
H2       0.70666    0.49043    0.82299   1.00
C5       0.37409    0.11773    0.98330   1.00
H2       0.38739    0.10245    0.95802   1.00
H2       0.35310    0.13901    0.97076   1.00
C5       0.35251    0.08781    1.00935   1.00
H2       0.32310    0.08110    0.99729   1.00
H2       0.34918    0.09960    1.03943   1.00
O_3      0.47885    0.27000    1.06752   1.00
C4       0.50025    0.22900    0.99963   1.00
C3c      0.46712    0.20757    0.98859   1.00
H1       0.44092    0.22275    0.97973   1.00
C3d      0.53427    0.20865    1.01053   1.00
C3       0.46699    0.16646    0.98929   1.00
O2       0.43524    0.14752    0.97359   1.00
C3       0.53400    0.16773    1.01198   1.00
H1       0.56032    0.15343    1.02185   1.00
C2       0.50060    0.14561    1.00131   1.00
C5       0.50905    0.27121    1.09552   1.00
H2       0.51620    0.30162    1.10458   1.00
H2       0.53620    0.25734    1.08409   1.00
C5       0.49520    0.24878    1.13117   1.00
H2       0.48701    0.21871    1.12192   1.00
H2       0.46830    0.26309    1.14255   1.00
C5       0.52696    0.24746    1.16268   1.00
H2       0.53548    0.27740    1.17186   1.00
H2       0.55335    0.23197    1.15179   1.00
H2       0.51601    0.23170    1.18884   1.00
C5       0.59084    0.23895    0.99289   1.00
C5       0.40776    0.13930    1.00325   1.00
H2       0.57552    0.25912    0.97259   1.00
H2       0.60082    0.21288    0.97613   1.00
H2       0.39707    0.16700    1.01662   1.00
H2       0.42032    0.12105    1.02723   1.00
H2       0.36860    0.05945    1.01062   1.00
H2       0.63242    0.30750    0.96686   1.00
H2       0.65669    0.26234    0.95324   1.00
C2       0.50107    0.35395    1.00234   1.00
C3       0.50990    0.33403    0.96737   1.00
O2       0.52806    0.35326    0.93702   1.00
C3       0.49021    0.33174    1.03541   1.00
H1       0.48230    0.34615    1.06232   1.00
C3a      0.50870    0.29287    0.96649   1.00
H1       0.51769    0.27798    0.94016   1.00
C3b      0.49026    0.29078    1.03478   1.00
C4       0.49962    0.27100    1.00018   1.00
O_3      0.56666    0.22833    1.02447   1.00
C5       0.50067    0.36280    0.90779   1.00
H2       0.48626    0.33609    0.89592   1.00
C5       0.52309    0.38334    0.87507   1.00
H2       0.47773    0.38274    0.91938   1.00
H2       0.53793    0.36077    0.85702   1.00
H2       0.54657    0.40101    0.88896   1.00
C5       0.49678    0.40931    0.84940   1.00
H2       0.47179    0.39189    0.83829   1.00
H2       0.51340    0.42109    0.82408   1.00
H2       0.48560    0.43506    0.86604   1.00
C5       0.62632    0.25980    1.00962   1.00
H2       0.64517    0.23782    1.02438   1.00
H2       0.61611    0.28045    1.03257   1.00
C5       0.64929    0.28197    0.97802   1.00
H2       0.67701    0.29334    0.99043   1.00
C5       0.48330    0.37409    0.61773   1.00
H2       0.45802    0.38739    0.60245   1.00
H2       0.47076    0.35310    0.63901   1.00
C5       0.50935    0.35251    0.58781   1.00
H2       0.49729    0.32310    0.58110   1.00
H2       0.53943    0.34918    0.59960   1.00
O_3      0.56752    0.47885    0.77000   1.00
C4       0.49963    0.50025    0.72900   1.00
C3c      0.48859    0.46712    0.70757   1.00
H1       0.47973    0.44092    0.72275   1.00
C3d      0.51053    0.53427    0.70865   1.00
C3       0.48929    0.46699    0.66646   1.00
O2       0.47359    0.43524    0.64752   1.00
C3       0.51198    0.53400    0.66773   1.00
H1       0.52185    0.56032    0.65343   1.00
C2       0.50131    0.50060    0.64561   1.00
C5       0.59552    0.50905    0.77121   1.00
H2       0.60458    0.51620    0.80162   1.00
H2       0.58409    0.53620    0.75734   1.00
C5       0.63117    0.49520    0.74878   1.00
H2       0.62192    0.48701    0.71871   1.00
H2       0.64255    0.46830    0.76309   1.00
C5       0.66268    0.52696    0.74746   1.00
H2       0.67186    0.53548    0.77740   1.00
H2       0.65179    0.55335    0.73197   1.00
H2       0.68884    0.51601    0.73170   1.00
C5       0.49289    0.59084    0.73895   1.00
C5       0.50325    0.40776    0.63930   1.00
H2       0.47259    0.57552    0.75912   1.00
H2       0.47613    0.60082    0.71288   1.00
H2       0.51662    0.39707    0.66700   1.00
H2       0.52723    0.42032    0.62105   1.00
H2       0.51062    0.36860    0.55945   1.00
H2       0.46686    0.63242    0.80750   1.00
H2       0.45324    0.65669    0.76234   1.00
C2       0.50234    0.50107    0.85395   1.00
C3       0.46737    0.50990    0.83403   1.00
O2       0.43702    0.52806    0.85326   1.00
C3       0.53541    0.49021    0.83174   1.00
H1       0.56232    0.48230    0.84615   1.00
C3a      0.46649    0.50870    0.79287   1.00
H1       0.44016    0.51769    0.77798   1.00
C3b      0.53478    0.49026    0.79078   1.00
C4       0.50018    0.49962    0.77100   1.00
O_3      0.52447    0.56666    0.72833   1.00
C5       0.40779    0.50067    0.86280   1.00
H2       0.39592    0.48626    0.83609   1.00
C5       0.37507    0.52309    0.88334   1.00
H2       0.41938    0.47773    0.88274   1.00
H2       0.35702    0.53793    0.86077   1.00
H2       0.38896    0.54657    0.90101   1.00
C5       0.34940    0.49678    0.90931   1.00
H2       0.33829    0.47179    0.89189   1.00
H2       0.32408    0.51340    0.92109   1.00
H2       0.36604    0.48560    0.93506   1.00
C5       0.50962    0.62632    0.75980   1.00
H2       0.52438    0.64517    0.73782   1.00
H2       0.53257    0.61611    0.78045   1.00
C5       0.47802    0.64929    0.78197   1.00
H2       0.49043    0.67701    0.79334   1.00
C5       0.48330    1.12591    0.88227   1.00
H2       0.45802    1.11261    0.89755   1.00
H2       0.47076    1.14690    0.86099   1.00
C5       0.50935    1.14749    0.91219   1.00
H2       0.49729    1.17690    0.91890   1.00
H2       0.53943    1.15082    0.90040   1.00
O_3      0.56752    1.02115    0.73000   1.00
C4       0.49963    0.99975    0.77100   1.00
C3c      0.48859    1.03288    0.79243   1.00
H1       0.47973    1.05908    0.77725   1.00
C3d      0.51053    0.96573    0.79135   1.00
C3       0.48929    1.03301    0.83354   1.00
O2       0.47359    1.06476    0.85248   1.00
C3       0.51198    0.96600    0.83227   1.00
H1       0.52185    0.93968    0.84657   1.00
C2       0.50131    0.99940    0.85439   1.00
C5       0.59552    0.99095    0.72879   1.00
H2       0.60458    0.98380    0.69838   1.00
H2       0.58409    0.96380    0.74266   1.00
C5       0.63117    1.00480    0.75122   1.00
H2       0.62192    1.01299    0.78129   1.00
H2       0.64255    1.03170    0.73691   1.00
C5       0.66268    0.97304    0.75254   1.00
H2       0.67186    0.96452    0.72260   1.00
H2       0.65179    0.94665    0.76803   1.00
H2       0.68884    0.98399    0.76830   1.00
C5       0.49289    0.90916    0.76105   1.00
C5       0.50325    1.09224    0.86070   1.00
H2       0.47259    0.92448    0.74088   1.00
H2       0.47613    0.89918    0.78712   1.00
H2       0.51662    1.10293    0.83300   1.00
H2       0.52723    1.07968    0.87895   1.00
H2       0.51062    1.13140    0.94055   1.00
H2       0.46686    0.86758    0.69250   1.00
H2       0.45324    0.84331    0.73766   1.00
C2       0.50234    0.99893    0.64605   1.00
C3       0.46737    0.99010    0.66597   1.00
O2       0.43702    0.97194    0.64674   1.00
C3       0.53541    1.00979    0.66826   1.00
H1       0.56232    1.01770    0.65385   1.00
C3a      0.46649    0.99130    0.70713   1.00
H1       0.44016    0.98231    0.72202   1.00
C3b      0.53478    1.00974    0.70922   1.00
C4       0.50018    1.00038    0.72900   1.00
O_3      0.52447    0.93334    0.77167   1.00
C5       0.40779    0.99933    0.63720   1.00
H2       0.39592    1.01374    0.66391   1.00
C5       0.37507    0.97691    0.61666   1.00
H2       0.41938    1.02227    0.61726   1.00
H2       0.35702    0.96207    0.63923   1.00
H2       0.38896    0.95343    0.59899   1.00
C5       0.34940    1.00322    0.59069   1.00
H2       0.33829    1.02821    0.60811   1.00
H2       0.32408    0.98660    0.57891   1.00
H2       0.36604    1.01440    0.56494   1.00
C5       0.50962    0.87368    0.74020   1.00
H2       0.52438    0.85483    0.76218   1.00
H2       0.53257    0.88389    0.71955   1.00
C5       0.47802    0.85071    0.71803   1.00
H2       0.49043    0.82299    0.70666   1.00
C5       0.62591    1.38227    0.48330   1.00
H2       0.61261    1.39755    0.45802   1.00
H2       0.64690    1.36099    0.47076   1.00
C5       0.64749    1.41219    0.50935   1.00
H2       0.67690    1.41890    0.49729   1.00
H2       0.65082    1.40040    0.53943   1.00
O_3      0.52115    1.23000    0.56752   1.00
C4       0.49975    1.27100    0.49963   1.00
C3c      0.53288    1.29243    0.48859   1.00
H1       0.55908    1.27725    0.47973   1.00
C3d      0.46573    1.29135    0.51053   1.00
C3       0.53301    1.33354    0.48929   1.00
O2       0.56476    1.35248    0.47359   1.00
C3       0.46600    1.33227    0.51198   1.00
H1       0.43968    1.34657    0.52185   1.00
C2       0.49940    1.35439    0.50131   1.00
C5       0.49095    1.22879    0.59552   1.00
H2       0.48380    1.19838    0.60458   1.00
H2       0.46380    1.24266    0.58409   1.00
C5       0.50480    1.25122    0.63117   1.00
H2       0.51299    1.28129    0.62192   1.00
H2       0.53170    1.23691    0.64255   1.00
C5       0.47304    1.25254    0.66268   1.00
H2       0.46452    1.22260    0.67186   1.00
H2       0.44665    1.26803    0.65179   1.00
H2       0.48399    1.26830    0.68884   1.00
C5       0.40916    1.26105    0.49289   1.00
C5       0.59224    1.36070    0.50325   1.00
H2       0.42448    1.24088    0.47259   1.00
H2       0.39918    1.28712    0.47613   1.00
H2       0.60293    1.33300    0.51662   1.00
H2       0.57968    1.37895    0.52723   1.00
H2       0.63140    1.44055    0.51062   1.00
H2       0.36758    1.19250    0.46686   1.00
H2       0.34331    1.23766    0.45324   1.00
C2       0.49893    1.14605    0.50234   1.00
C3       0.49010    1.16597    0.46737   1.00
O2       0.47194    1.14674    0.43702   1.00
C3       0.50979    1.16826    0.53541   1.00
H1       0.51770    1.15385    0.56232   1.00
C3a      0.49130    1.20713    0.46649   1.00
H1       0.48231    1.22202    0.44016   1.00
C3b      0.50974    1.20922    0.53478   1.00
C4       0.50038    1.22900    0.50018   1.00
O_3      0.43334    1.27167    0.52447   1.00
C5       0.49933    1.13720    0.40779   1.00
H2       0.51374    1.16391    0.39592   1.00
C5       0.47691    1.11666    0.37507   1.00
H2       0.52227    1.11726    0.41938   1.00
H2       0.46207    1.13923    0.35702   1.00
H2       0.45343    1.09899    0.38896   1.00
C5       0.50322    1.09069    0.34940   1.00
H2       0.52821    1.10811    0.33829   1.00
H2       0.48660    1.07891    0.32408   1.00
H2       0.51440    1.06494    0.36604   1.00
C5       0.37368    1.24020    0.50962   1.00
H2       0.35483    1.26218    0.52438   1.00
H2       0.38389    1.21955    0.53257   1.00
C5       0.35071    1.21803    0.47802   1.00
H2       0.32299    1.20666    0.49043   1.00
C5       0.11773    0.98330    0.37409   1.00
H2       0.10245    0.95802    0.38739   1.00
H2       0.13901    0.97076    0.35310   1.00
C5       0.08781    1.00935    0.35251   1.00
H2       0.08110    0.99729    0.32310   1.00
H2       0.09960    1.03943    0.34918   1.00
O_3      0.27000    1.06752    0.47885   1.00
C4       0.22900    0.99963    0.50025   1.00
C3c      0.20757    0.98859    0.46712   1.00
H1       0.22275    0.97973    0.44092   1.00
C3d      0.20865    1.01053    0.53427   1.00
C3       0.16646    0.98929    0.46699   1.00
O2       0.14752    0.97359    0.43524   1.00
C3       0.16773    1.01198    0.53400   1.00
H1       0.15343    1.02185    0.56032   1.00
C2       0.14561    1.00131    0.50060   1.00
C5       0.27121    1.09552    0.50905   1.00
H2       0.30162    1.10458    0.51620   1.00
H2       0.25734    1.08409    0.53620   1.00
C5       0.24878    1.13117    0.49520   1.00
H2       0.21871    1.12192    0.48701   1.00
H2       0.26309    1.14255    0.46830   1.00
C5       0.24746    1.16268    0.52696   1.00
H2       0.27740    1.17186    0.53548   1.00
H2       0.23197    1.15179    0.55335   1.00
H2       0.23170    1.18884    0.51601   1.00
C5       0.23895    0.99289    0.59084   1.00
C5       0.13930    1.00325    0.40776   1.00
H2       0.25912    0.97259    0.57552   1.00
H2       0.21288    0.97613    0.60082   1.00
H2       0.16700    1.01662    0.39707   1.00
H2       0.12105    1.02723    0.42032   1.00
H2       0.05945    1.01062    0.36860   1.00
H2       0.30750    0.96686    0.63242   1.00
H2       0.26234    0.95324    0.65669   1.00
C2       0.35395    1.00234    0.50107   1.00
C3       0.33403    0.96737    0.50990   1.00
O2       0.35326    0.93702    0.52806   1.00
C3       0.33174    1.03541    0.49021   1.00
H1       0.34615    1.06232    0.48230   1.00
C3a      0.29287    0.96649    0.50870   1.00
H1       0.27798    0.94016    0.51769   1.00
C3b      0.29078    1.03478    0.49026   1.00
C4       0.27100    1.00018    0.49962   1.00
O_3      0.22833    1.02447    0.56666   1.00
C5       0.36280    0.90779    0.50067   1.00
H2       0.33609    0.89592    0.48626   1.00
C5       0.38334    0.87507    0.52309   1.00
H2       0.38274    0.91938    0.47773   1.00
H2       0.36077    0.85702    0.53793   1.00
H2       0.40101    0.88896    0.54657   1.00
C5       0.40931    0.84940    0.49678   1.00
H2       0.39189    0.83829    0.47179   1.00
H2       0.42109    0.82408    0.51340   1.00
H2       0.43506    0.86604    0.48560   1.00
C5       0.25980    1.00962    0.62632   1.00
H2       0.23782    1.02438    0.64517   1.00
H2       0.28045    1.03257    0.61611   1.00
C5       0.28197    0.97802    0.64929   1.00
H2       0.29334    0.99043    0.67701   1.00
C5       0.88227    0.98330    0.62591   1.00
H2       0.89755    0.95802    0.61261   1.00
H2       0.86099    0.97076    0.64690   1.00
C5       0.91219    1.00935    0.64749   1.00
H2       0.91890    0.99729    0.67690   1.00
H2       0.90040    1.03943    0.65082   1.00
O_3      0.73000    1.06752    0.52115   1.00
C4       0.77100    0.99963    0.49975   1.00
C3c      0.79243    0.98859    0.53288   1.00
H1       0.77725    0.97973    0.55908   1.00
C3d      0.79135    1.01053    0.46573   1.00
C3       0.83354    0.98929    0.53301   1.00
O2       0.85248    0.97359    0.56476   1.00
C3       0.83227    1.01198    0.46600   1.00
H1       0.84657    1.02185    0.43968   1.00
C2       0.85439    1.00131    0.49940   1.00
C5       0.72879    1.09552    0.49095   1.00
H2       0.69838    1.10458    0.48380   1.00
H2       0.74266    1.08409    0.46380   1.00
C5       0.75122    1.13117    0.50480   1.00
H2       0.78129    1.12192    0.51299   1.00
H2       0.73691    1.14255    0.53170   1.00
C5       0.75254    1.16268    0.47304   1.00
H2       0.72260    1.17186    0.46452   1.00
H2       0.76803    1.15179    0.44665   1.00
H2       0.76830    1.18884    0.48399   1.00
C5       0.76105    0.99289    0.40916   1.00
C5       0.86070    1.00325    0.59224   1.00
H2       0.74088    0.97259    0.42448   1.00
H2       0.78712    0.97613    0.39918   1.00
H2       0.83300    1.01662    0.60293   1.00
H2       0.87895    1.02723    0.57968   1.00
H2       0.94055    1.01062    0.63140   1.00
H2       0.69250    0.96686    0.36758   1.00
H2       0.73766    0.95324    0.34331   1.00
C2       0.64605    1.00234    0.49893   1.00
C3       0.66597    0.96737    0.49010   1.00
O2       0.64674    0.93702    0.47194   1.00
C3       0.66826    1.03541    0.50979   1.00
H1       0.65385    1.06232    0.51770   1.00
C3a      0.70713    0.96649    0.49130   1.00
H1       0.72202    0.94016    0.48231   1.00
C3b      0.70922    1.03478    0.50974   1.00
C4       0.72900    1.00018    0.50038   1.00
O_3      0.77167    1.02447    0.43334   1.00
C5       0.63720    0.90779    0.49933   1.00
H2       0.66391    0.89592    0.51374   1.00
C5       0.61666    0.87507    0.47691   1.00
H2       0.61726    0.91938    0.52227   1.00
H2       0.63923    0.85702    0.46207   1.00
H2       0.59899    0.88896    0.45343   1.00
C5       0.59069    0.84940    0.50322   1.00
H2       0.60811    0.83829    0.52821   1.00
H2       0.57891    0.82408    0.48660   1.00
H2       0.56494    0.86604    0.51440   1.00
C5       0.74020    1.00962    0.37368   1.00
H2       0.76218    1.02438    0.35483   1.00
H2       0.71955    1.03257    0.38389   1.00
C5       0.71803    0.97802    0.35071   1.00
H2       0.70666    0.99043    0.32299   1.00
C5       0.37409    0.61773    0.48330   1.00
H2       0.38739    0.60245    0.45802   1.00
H2       0.35310    0.63901    0.47076   1.00
C5       0.35251    0.58781    0.50935   1.00
H2       0.32310    0.58110    0.49729   1.00
H2       0.34918    0.59960    0.53943   1.00
O_3      0.47885    0.77000    0.56752   1.00
C4       0.50025    0.72900    0.49963   1.00
C3c      0.46712    0.70757    0.48859   1.00
H1       0.44092    0.72275    0.47973   1.00
C3d      0.53427    0.70865    0.51053   1.00
C3       0.46699    0.66646    0.48929   1.00
O2       0.43524    0.64752    0.47359   1.00
C3       0.53400    0.66773    0.51198   1.00
H1       0.56032    0.65343    0.52185   1.00
C2       0.50060    0.64561    0.50131   1.00
C5       0.50905    0.77121    0.59552   1.00
H2       0.51620    0.80162    0.60458   1.00
H2       0.53620    0.75734    0.58409   1.00
C5       0.49520    0.74878    0.63117   1.00
H2       0.48701    0.71871    0.62192   1.00
H2       0.46830    0.76309    0.64255   1.00
C5       0.52696    0.74746    0.66268   1.00
H2       0.53548    0.77740    0.67186   1.00
H2       0.55335    0.73197    0.65179   1.00
H2       0.51601    0.73170    0.68884   1.00
C5       0.59084    0.73895    0.49289   1.00
C5       0.40776    0.63930    0.50325   1.00
H2       0.57552    0.75912    0.47259   1.00
H2       0.60082    0.71288    0.47613   1.00
H2       0.39707    0.66700    0.51662   1.00
H2       0.42032    0.62105    0.52723   1.00
H2       0.36860    0.55945    0.51062   1.00
H2       0.63242    0.80750    0.46686   1.00
H2       0.65669    0.76234    0.45324   1.00
C2       0.50107    0.85395    0.50234   1.00
C3       0.50990    0.83403    0.46737   1.00
O2       0.52806    0.85326    0.43702   1.00
C3       0.49021    0.83174    0.53541   1.00
H1       0.48230    0.84615    0.56232   1.00
C3a      0.50870    0.79287    0.46649   1.00
H1       0.51769    0.77798    0.44016   1.00
C3b      0.49026    0.79078    0.53478   1.00
C4       0.49962    0.77100    0.50018   1.00
O_3      0.56666    0.72833    0.52447   1.00
C5       0.50067    0.86280    0.40779   1.00
H2       0.48626    0.83609    0.39592   1.00
C5       0.52309    0.88334    0.37507   1.00
H2       0.47773    0.88274    0.41938   1.00
H2       0.53793    0.86077    0.35702   1.00
H2       0.54657    0.90101    0.38896   1.00
C5       0.49678    0.90931    0.34940   1.00
H2       0.47179    0.89189    0.33829   1.00
H2       0.51340    0.92109    0.32408   1.00
H2       0.48560    0.93506    0.36604   1.00
C5       0.62632    0.75980    0.50962   1.00
H2       0.64517    0.73782    0.52438   1.00
H2       0.61611    0.78045    0.53257   1.00
C5       0.64929    0.78197    0.47802   1.00
H2       0.67701    0.79334    0.49043   1.00
C5       0.48330    0.87409    0.11773   1.00
H2       0.45802    0.88739    0.10245   1.00
H2       0.47076    0.85310    0.13901   1.00
C5       0.50935    0.85251    0.08781   1.00
H2       0.49729    0.82310    0.08110   1.00
H2       0.53943    0.84918    0.09960   1.00
O_3      0.56752    0.97885    0.27000   1.00
C4       0.49963    1.00025    0.22900   1.00
C3c      0.48859    0.96712    0.20757   1.00
H1       0.47973    0.94092    0.22275   1.00
C3d      0.51053    1.03427    0.20865   1.00
C3       0.48929    0.96699    0.16646   1.00
O2       0.47359    0.93524    0.14752   1.00
C3       0.51198    1.03400    0.16773   1.00
H1       0.52185    1.06032    0.15343   1.00
C2       0.50131    1.00060    0.14561   1.00
C5       0.59552    1.00905    0.27121   1.00
H2       0.60458    1.01620    0.30162   1.00
H2       0.58409    1.03620    0.25734   1.00
C5       0.63117    0.99520    0.24878   1.00
H2       0.62192    0.98701    0.21871   1.00
H2       0.64255    0.96830    0.26309   1.00
C5       0.66268    1.02696    0.24746   1.00
H2       0.67186    1.03548    0.27740   1.00
H2       0.65179    1.05335    0.23197   1.00
H2       0.68884    1.01601    0.23170   1.00
C5       0.49289    1.09084    0.23895   1.00
C5       0.50325    0.90776    0.13930   1.00
H2       0.47259    1.07552    0.25912   1.00
H2       0.47613    1.10082    0.21288   1.00
H2       0.51662    0.89707    0.16700   1.00
H2       0.52723    0.92032    0.12105   1.00
H2       0.51062    0.86860    0.05945   1.00
H2       0.46686    1.13242    0.30750   1.00
H2       0.45324    1.15669    0.26234   1.00
C2       0.50234    1.00107    0.35395   1.00
C3       0.46737    1.00990    0.33403   1.00
O2       0.43702    1.02806    0.35326   1.00
C3       0.53541    0.99021    0.33174   1.00
H1       0.56232    0.98230    0.34615   1.00
C3a      0.46649    1.00870    0.29287   1.00
H1       0.44016    1.01769    0.27798   1.00
C3b      0.53478    0.99026    0.29078   1.00
C4       0.50018    0.99962    0.27100   1.00
O_3      0.52447    1.06666    0.22833   1.00
C5       0.40779    1.00067    0.36280   1.00
H2       0.39592    0.98626    0.33609   1.00
C5       0.37507    1.02309    0.38334   1.00
H2       0.41938    0.97773    0.38274   1.00
H2       0.35702    1.03793    0.36077   1.00
H2       0.38896    1.04657    0.40101   1.00
C5       0.34940    0.99678    0.40931   1.00
H2       0.33829    0.97179    0.39189   1.00
H2       0.32408    1.01340    0.42109   1.00
H2       0.36604    0.98560    0.43506   1.00
C5       0.50962    1.12632    0.25980   1.00
H2       0.52438    1.14517    0.23782   1.00
H2       0.53257    1.11611    0.28045   1.00
C5       0.47802    1.14929    0.28197   1.00
H2       0.49043    1.17701    0.29334   1.00
C5       0.98330    0.62591    0.88227   1.00
H2       0.95802    0.61261    0.89755   1.00
H2       0.97076    0.64690    0.86099   1.00
C5       1.00935    0.64749    0.91219   1.00
H2       0.99729    0.67690    0.91890   1.00
H2       1.03943    0.65082    0.90040   1.00
O_3      1.06752    0.52115    0.73000   1.00
C4       0.99963    0.49975    0.77100   1.00
C3c      0.98859    0.53288    0.79243   1.00
H1       0.97973    0.55908    0.77725   1.00
C3d      1.01053    0.46573    0.79135   1.00
C3       0.98929    0.53301    0.83354   1.00
O2       0.97359    0.56476    0.85248   1.00
C3       1.01198    0.46600    0.83227   1.00
H1       1.02185    0.43968    0.84657   1.00
C2       1.00131    0.49940    0.85439   1.00
C5       1.09552    0.49095    0.72879   1.00
H2       1.10458    0.48380    0.69838   1.00
H2       1.08409    0.46380    0.74266   1.00
C5       1.13117    0.50480    0.75122   1.00
H2       1.12192    0.51299    0.78129   1.00
H2       1.14255    0.53170    0.73691   1.00
C5       1.16268    0.47304    0.75254   1.00
H2       1.17186    0.46452    0.72260   1.00
H2       1.15179    0.44665    0.76803   1.00
H2       1.18884    0.48399    0.76830   1.00
C5       0.99289    0.40916    0.76105   1.00
C5       1.00325    0.59224    0.86070   1.00
H2       0.97259    0.42448    0.74088   1.00
H2       0.97613    0.39918    0.78712   1.00
H2       1.01662    0.60293    0.83300   1.00
H2       1.02723    0.57968    0.87895   1.00
H2       1.01062    0.63140    0.94055   1.00
H2       0.96686    0.36758    0.69250   1.00
H2       0.95324    0.34331    0.73766   1.00
C2       1.00234    0.49893    0.64605   1.00
C3       0.96737    0.49010    0.66597   1.00
O2       0.93702    0.47194    0.64674   1.00
C3       1.03541    0.50979    0.66826   1.00
H1       1.06232    0.51770    0.65385   1.00
C3a      0.96649    0.49130    0.70713   1.00
H1       0.94016    0.48231    0.72202   1.00
C3b      1.03478    0.50974    0.70922   1.00
C4       1.00018    0.50038    0.72900   1.00
O_3      1.02447    0.43334    0.77167   1.00
C5       0.90779    0.49933    0.63720   1.00
H2       0.89592    0.51374    0.66391   1.00
C5       0.87507    0.47691    0.61666   1.00
H2       0.91938    0.52227    0.61726   1.00
H2       0.85702    0.46207    0.63923   1.00
H2       0.88896    0.45343    0.59899   1.00
C5       0.84940    0.50322    0.59069   1.00
H2       0.83829    0.52821    0.60811   1.00
H2       0.82408    0.48660    0.57891   1.00
H2       0.86604    0.51440    0.56494   1.00
C5       1.00962    0.37368    0.74020   1.00
H2       1.02438    0.35483    0.76218   1.00
H2       1.03257    0.38389    0.71955   1.00
C5       0.97802    0.35071    0.71803   1.00
H2       0.99043    0.32299    0.70666   1.00
C5       1.12591    0.88227    0.48330   1.00
H2       1.11261    0.89755    0.45802   1.00
H2       1.14690    0.86099    0.47076   1.00
C5       1.14749    0.91219    0.50935   1.00
H2       1.17690    0.91890    0.49729   1.00
H2       1.15082    0.90040    0.53943   1.00
O_3      1.02115    0.73000    0.56752   1.00
C4       0.99975    0.77100    0.49963   1.00
C3c      1.03288    0.79243    0.48859   1.00
H1       1.05908    0.77725    0.47973   1.00
C3d      0.96573    0.79135    0.51053   1.00
C3       1.03301    0.83354    0.48929   1.00
O2       1.06476    0.85248    0.47359   1.00
C3       0.96600    0.83227    0.51198   1.00
H1       0.93968    0.84657    0.52185   1.00
C2       0.99940    0.85439    0.50131   1.00
C5       0.99095    0.72879    0.59552   1.00
H2       0.98380    0.69838    0.60458   1.00
H2       0.96380    0.74266    0.58409   1.00
C5       1.00480    0.75122    0.63117   1.00
H2       1.01299    0.78129    0.62192   1.00
H2       1.03170    0.73691    0.64255   1.00
C5       0.97304    0.75254    0.66268   1.00
H2       0.96452    0.72260    0.67186   1.00
H2       0.94665    0.76803    0.65179   1.00
H2       0.98399    0.76830    0.68884   1.00
C5       0.90916    0.76105    0.49289   1.00
C5       1.09224    0.86070    0.50325   1.00
H2       0.92448    0.74088    0.47259   1.00
H2       0.89918    0.78712    0.47613   1.00
H2       1.10293    0.83300    0.51662   1.00
H2       1.07968    0.87895    0.52723   1.00
H2       1.13140    0.94055    0.51062   1.00
H2       0.86758    0.69250    0.46686   1.00
H2       0.84331    0.73766    0.45324   1.00
C2       0.99893    0.64605    0.50234   1.00
C3       0.99010    0.66597    0.46737   1.00
O2       0.97194    0.64674    0.43702   1.00
C3       1.00979    0.66826    0.53541   1.00
H1       1.01770    0.65385    0.56232   1.00
C3a      0.99130    0.70713    0.46649   1.00
H1       0.98231    0.72202    0.44016   1.00
C3b      1.00974    0.70922    0.53478   1.00
C4       1.00038    0.72900    0.50018   1.00
O_3      0.93334    0.77167    0.52447   1.00
C5       0.99933    0.63720    0.40779   1.00
H2       1.01374    0.66391    0.39592   1.00
C5       0.97691    0.61666    0.37507   1.00
H2       1.02227    0.61726    0.41938   1.00
H2       0.96207    0.63923    0.35702   1.00
H2       0.95343    0.59899    0.38896   1.00
C5       1.00322    0.59069    0.34940   1.00
H2       1.02821    0.60811    0.33829   1.00
H2       0.98660    0.57891    0.32408   1.00
H2       1.01440    0.56494    0.36604   1.00
C5       0.87368    0.74020    0.50962   1.00
H2       0.85483    0.76218    0.52438   1.00
H2       0.88389    0.71955    0.53257   1.00
C5       0.85071    0.71803    0.47802   1.00
H2       0.82299    0.70666    0.49043   1.00
C5       0.61773    0.48330    0.37409   1.00
H2       0.60245    0.45802    0.38739   1.00
H2       0.63901    0.47076    0.35310   1.00
C5       0.58781    0.50935    0.35251   1.00
H2       0.58110    0.49729    0.32310   1.00
H2       0.59960    0.53943    0.34918   1.00
O_3      0.77000    0.56752    0.47885   1.00
C4       0.72900    0.49963    0.50025   1.00
C3c      0.70757    0.48859    0.46712   1.00
H1       0.72275    0.47973    0.44092   1.00
C3d      0.70865    0.51053    0.53427   1.00
C3       0.66646    0.48929    0.46699   1.00
O2       0.64752    0.47359    0.43524   1.00
C3       0.66773    0.51198    0.53400   1.00
H1       0.65343    0.52185    0.56032   1.00
C2       0.64561    0.50131    0.50060   1.00
C5       0.77121    0.59552    0.50905   1.00
H2       0.80162    0.60458    0.51620   1.00
H2       0.75734    0.58409    0.53620   1.00
C5       0.74878    0.63117    0.49520   1.00
H2       0.71871    0.62192    0.48701   1.00
H2       0.76309    0.64255    0.46830   1.00
C5       0.74746    0.66268    0.52696   1.00
H2       0.77740    0.67186    0.53548   1.00
H2       0.73197    0.65179    0.55335   1.00
H2       0.73170    0.68884    0.51601   1.00
C5       0.73895    0.49289    0.59084   1.00
C5       0.63930    0.50325    0.40776   1.00
H2       0.75912    0.47259    0.57552   1.00
H2       0.71288    0.47613    0.60082   1.00
H2       0.66700    0.51662    0.39707   1.00
H2       0.62105    0.52723    0.42032   1.00
H2       0.55945    0.51062    0.36860   1.00
H2       0.80750    0.46686    0.63242   1.00
H2       0.76234    0.45324    0.65669   1.00
C2       0.85395    0.50234    0.50107   1.00
C3       0.83403    0.46737    0.50990   1.00
O2       0.85326    0.43702    0.52806   1.00
C3       0.83174    0.53541    0.49021   1.00
H1       0.84615    0.56232    0.48230   1.00
C3a      0.79287    0.46649    0.50870   1.00
H1       0.77798    0.44016    0.51769   1.00
C3b      0.79078    0.53478    0.49026   1.00
C4       0.77100    0.50018    0.49962   1.00
O_3      0.72833    0.52447    0.56666   1.00
C5       0.86280    0.40779    0.50067   1.00
H2       0.83609    0.39592    0.48626   1.00
C5       0.88334    0.37507    0.52309   1.00
H2       0.88274    0.41938    0.47773   1.00
H2       0.86077    0.35702    0.53793   1.00
H2       0.90101    0.38896    0.54657   1.00
C5       0.90931    0.34940    0.49678   1.00
H2       0.89189    0.33829    0.47179   1.00
H2       0.92109    0.32408    0.51340   1.00
H2       0.93506    0.36604    0.48560   1.00
C5       0.75980    0.50962    0.62632   1.00
H2       0.73782    0.52438    0.64517   1.00
H2       0.78045    0.53257    0.61611   1.00
C5       0.78197    0.47802    0.64929   1.00
H2       0.79334    0.49043    0.67701   1.00
C5       1.38227    0.48330    0.62591   1.00
H2       1.39755    0.45802    0.61261   1.00
H2       1.36099    0.47076    0.64690   1.00
C5       1.41219    0.50935    0.64749   1.00
H2       1.41890    0.49729    0.67690   1.00
H2       1.40040    0.53943    0.65082   1.00
O_3      1.23000    0.56752    0.52115   1.00
C4       1.27100    0.49963    0.49975   1.00
C3c      1.29243    0.48859    0.53288   1.00
H1       1.27725    0.47973    0.55908   1.00
C3d      1.29135    0.51053    0.46573   1.00
C3       1.33354    0.48929    0.53301   1.00
O2       1.35248    0.47359    0.56476   1.00
C3       1.33227    0.51198    0.46600   1.00
H1       1.34657    0.52185    0.43968   1.00
C2       1.35439    0.50131    0.49940   1.00
C5       1.22879    0.59552    0.49095   1.00
H2       1.19838    0.60458    0.48380   1.00
H2       1.24266    0.58409    0.46380   1.00
C5       1.25122    0.63117    0.50480   1.00
H2       1.28129    0.62192    0.51299   1.00
H2       1.23691    0.64255    0.53170   1.00
C5       1.25254    0.66268    0.47304   1.00
H2       1.22260    0.67186    0.46452   1.00
H2       1.26803    0.65179    0.44665   1.00
H2       1.26830    0.68884    0.48399   1.00
C5       1.26105    0.49289    0.40916   1.00
C5       1.36070    0.50325    0.59224   1.00
H2       1.24088    0.47259    0.42448   1.00
H2       1.28712    0.47613    0.39918   1.00
H2       1.33300    0.51662    0.60293   1.00
H2       1.37895    0.52723    0.57968   1.00
H2       1.44055    0.51062    0.63140   1.00
H2       1.19250    0.46686    0.36758   1.00
H2       1.23766    0.45324    0.34331   1.00
C2       1.14605    0.50234    0.49893   1.00
C3       1.16597    0.46737    0.49010   1.00
O2       1.14674    0.43702    0.47194   1.00
C3       1.16826    0.53541    0.50979   1.00
H1       1.15385    0.56232    0.51770   1.00
C3a      1.20713    0.46649    0.49130   1.00
H1       1.22202    0.44016    0.48231   1.00
C3b      1.20922    0.53478    0.50974   1.00
C4       1.22900    0.50018    0.50038   1.00
O_3      1.27167    0.52447    0.43334   1.00
C5       1.13720    0.40779    0.49933   1.00
H2       1.16391    0.39592    0.51374   1.00
C5       1.11666    0.37507    0.47691   1.00
H2       1.11726    0.41938    0.52227   1.00
H2       1.13923    0.35702    0.46207   1.00
H2       1.09899    0.38896    0.45343   1.00
C5       1.09069    0.34940    0.50322   1.00
H2       1.10811    0.33829    0.52821   1.00
H2       1.07891    0.32408    0.48660   1.00
H2       1.06494    0.36604    0.51440   1.00
C5       1.24020    0.50962    0.37368   1.00
H2       1.26218    0.52438    0.35483   1.00
H2       1.21955    0.53257    0.38389   1.00
C5       1.21803    0.47802    0.35071   1.00
H2       1.20666    0.49043    0.32299   1.00
C5       0.87409    0.11773    0.48330   1.00
H2       0.88739    0.10245    0.45802   1.00
H2       0.85310    0.13901    0.47076   1.00
C5       0.85251    0.08781    0.50935   1.00
H2       0.82310    0.08110    0.49729   1.00
H2       0.84918    0.09960    0.53943   1.00
O_3      0.97885    0.27000    0.56752   1.00
C4       1.00025    0.22900    0.49963   1.00
C3c      0.96712    0.20757    0.48859   1.00
H1       0.94092    0.22275    0.47973   1.00
C3d      1.03427    0.20865    0.51053   1.00
C3       0.96699    0.16646    0.48929   1.00
O2       0.93524    0.14752    0.47359   1.00
C3       1.03400    0.16773    0.51198   1.00
H1       1.06032    0.15343    0.52185   1.00
C2       1.00060    0.14561    0.50131   1.00
C5       1.00905    0.27121    0.59552   1.00
H2       1.01620    0.30162    0.60458   1.00
H2       1.03620    0.25734    0.58409   1.00
C5       0.99520    0.24878    0.63117   1.00
H2       0.98701    0.21871    0.62192   1.00
H2       0.96830    0.26309    0.64255   1.00
C5       1.02696    0.24746    0.66268   1.00
H2       1.03548    0.27740    0.67186   1.00
H2       1.05335    0.23197    0.65179   1.00
H2       1.01601    0.23170    0.68884   1.00
C5       1.09084    0.23895    0.49289   1.00
C5       0.90776    0.13930    0.50325   1.00
H2       1.07552    0.25912    0.47259   1.00
H2       1.10082    0.21288    0.47613   1.00
H2       0.89707    0.16700    0.51662   1.00
H2       0.92032    0.12105    0.52723   1.00
H2       0.86860    0.05945    0.51062   1.00
H2       1.13242    0.30750    0.46686   1.00
H2       1.15669    0.26234    0.45324   1.00
C2       1.00107    0.35395    0.50234   1.00
C3       1.00990    0.33403    0.46737   1.00
O2       1.02806    0.35326    0.43702   1.00
C3       0.99021    0.33174    0.53541   1.00
H1       0.98230    0.34615    0.56232   1.00
C3a      1.00870    0.29287    0.46649   1.00
H1       1.01769    0.27798    0.44016   1.00
C3b      0.99026    0.29078    0.53478   1.00
C4       0.99962    0.27100    0.50018   1.00
O_3      1.06666    0.22833    0.52447   1.00
C5       1.00067    0.36280    0.40779   1.00
H2       0.98626    0.33609    0.39592   1.00
C5       1.02309    0.38334    0.37507   1.00
H2       0.97773    0.38274    0.41938   1.00
H2       1.03793    0.36077    0.35702   1.00
H2       1.04657    0.40101    0.38896   1.00
C5       0.99678    0.40931    0.34940   1.00
H2       0.97179    0.39189    0.33829   1.00
H2       1.01340    0.42109    0.32408   1.00
H2       0.98560    0.43506    0.36604   1.00
C5       1.12632    0.25980    0.50962   1.00
H2       1.14517    0.23782    0.52438   1.00
H2       1.11611    0.28045    0.53257   1.00
C5       1.14929    0.28197    0.47802   1.00
H2       1.17701    0.29334    0.49043   1.00
C5       0.98330    0.37409    0.11773   1.00
H2       0.95802    0.38739    0.10245   1.00
H2       0.97076    0.35310    0.13901   1.00
C5       1.00935    0.35251    0.08781   1.00
H2       0.99729    0.32310    0.08110   1.00
H2       1.03943    0.34918    0.09960   1.00
O_3      1.06752    0.47885    0.27000   1.00
C4       0.99963    0.50025    0.22900   1.00
C3c      0.98859    0.46712    0.20757   1.00
H1       0.97973    0.44092    0.22275   1.00
C3d      1.01053    0.53427    0.20865   1.00
C3       0.98929    0.46699    0.16646   1.00
O2       0.97359    0.43524    0.14752   1.00
C3       1.01198    0.53400    0.16773   1.00
H1       1.02185    0.56032    0.15343   1.00
C2       1.00131    0.50060    0.14561   1.00
C5       1.09552    0.50905    0.27121   1.00
H2       1.10458    0.51620    0.30162   1.00
H2       1.08409    0.53620    0.25734   1.00
C5       1.13117    0.49520    0.24878   1.00
H2       1.12192    0.48701    0.21871   1.00
H2       1.14255    0.46830    0.26309   1.00
C5       1.16268    0.52696    0.24746   1.00
H2       1.17186    0.53548    0.27740   1.00
H2       1.15179    0.55335    0.23197   1.00
H2       1.18884    0.51601    0.23170   1.00
C5       0.99289    0.59084    0.23895   1.00
C5       1.00325    0.40776    0.13930   1.00
H2       0.97259    0.57552    0.25912   1.00
H2       0.97613    0.60082    0.21288   1.00
H2       1.01662    0.39707    0.16700   1.00
H2       1.02723    0.42032    0.12105   1.00
H2       1.01062    0.36860    0.05945   1.00
H2       0.96686    0.63242    0.30750   1.00
H2       0.95324    0.65669    0.26234   1.00
C2       1.00234    0.50107    0.35395   1.00
C3       0.96737    0.50990    0.33403   1.00
O2       0.93702    0.52806    0.35326   1.00
C3       1.03541    0.49021    0.33174   1.00
H1       1.06232    0.48230    0.34615   1.00
C3a      0.96649    0.50870    0.29287   1.00
H1       0.94016    0.51769    0.27798   1.00
C3b      1.03478    0.49026    0.29078   1.00
C4       1.00018    0.49962    0.27100   1.00
O_3      1.02447    0.56666    0.22833   1.00
C5       0.90779    0.50067    0.36280   1.00
H2       0.89592    0.48626    0.33609   1.00
C5       0.87507    0.52309    0.38334   1.00
H2       0.91938    0.47773    0.38274   1.00
H2       0.85702    0.53793    0.36077   1.00
H2       0.88896    0.54657    0.40101   1.00
C5       0.84940    0.49678    0.40931   1.00
H2       0.83829    0.47179    0.39189   1.00
H2       0.82408    0.51340    0.42109   1.00
H2       0.86604    0.48560    0.43506   1.00
C5       1.00962    0.62632    0.25980   1.00
H2       1.02438    0.64517    0.23782   1.00
H2       1.03257    0.61611    0.28045   1.00
C5       0.97802    0.64929    0.28197   1.00
H2       0.99043    0.67701    0.29334   1.00
