data_IRMOF10_SG202_interpen_Ligand11lp_label_i.

_audit_creation_method             'generated by an auxiliary program of Tobunporous'

_symmetry_space_group_name_H-M     'P 1'
_symmetry_Int_Tables_number        1
_symmetry_cell_setting             triclinic

_cell_length_a                    34.2800
_cell_length_b                    34.2800
_cell_length_c                    34.2800
_cell_angle_alpha                 90.0000
_cell_angle_beta                  90.0000
_cell_angle_gamma                 90.0000

loop_
_atom_site_label
_atom_site_fract_x
_atom_site_fract_y
_atom_site_fract_z
_atom_site_occupancy
O1       0.75000    0.75000    0.75000   1.00
Zn1      0.71720    0.78280    0.78280   1.00
Zn1      0.78280    0.71720    0.78280   1.00
Zn1      0.78280    0.78280    0.71720   1.00
Zn1      0.71720    0.71720    0.71720   1.00
O2       0.72650    0.77350    0.83820   1.00
O2       0.72650    0.83820    0.77350   1.00
O2       0.66180    0.77350    0.77350   1.00
O2       0.77350    0.72650    0.83820   1.00
O2       0.83820    0.72650    0.77350   1.00
O2       0.77350    0.66180    0.77350   1.00
O2       0.77350    0.83820    0.72650   1.00
O2       0.83820    0.77350    0.72650   1.00
O2       0.77350    0.77350    0.66180   1.00
O2       0.66180    0.72650    0.72650   1.00
O2       0.72650    0.66180    0.72650   1.00
O2       0.72650    0.72650    0.66180   1.00
C1       0.75000    0.75000    0.85520   1.00
C1       0.75000    0.85520    0.75000   1.00
C1       0.64480    0.75000    0.75000   1.00
C1       0.85520    0.75000    0.75000   1.00
C1       0.75000    0.64480    0.75000   1.00
C1       0.75000    0.75000    0.64480   1.00
O1       0.25000    0.25000    0.75000   1.00
Zn1      0.21720    0.28280    0.78280   1.00
Zn1      0.28280    0.21720    0.78280   1.00
Zn1      0.28280    0.28280    0.71720   1.00
Zn1      0.21720    0.21720    0.71720   1.00
O2       0.22650    0.27350    0.83820   1.00
O2       0.22650    0.33820    0.77350   1.00
O2       0.16180    0.27350    0.77350   1.00
O2       0.27350    0.22650    0.83820   1.00
O2       0.33820    0.22650    0.77350   1.00
O2       0.27350    0.16180    0.77350   1.00
O2       0.27350    0.33820    0.72650   1.00
O2       0.33820    0.27350    0.72650   1.00
O2       0.27350    0.27350    0.66180   1.00
O2       0.16180    0.22650    0.72650   1.00
O2       0.22650    0.16180    0.72650   1.00
O2       0.22650    0.22650    0.66180   1.00
C1       0.25000    0.25000    0.85520   1.00
C1       0.25000    0.35520    0.75000   1.00
C1       0.14480    0.25000    0.75000   1.00
C1       0.35520    0.25000    0.75000   1.00
C1       0.25000    0.14480    0.75000   1.00
C1       0.25000    0.25000    0.64480   1.00
O1       0.25000    0.75000    0.25000   1.00
Zn1      0.21720    0.78280    0.28280   1.00
Zn1      0.28280    0.71720    0.28280   1.00
Zn1      0.28280    0.78280    0.21720   1.00
Zn1      0.21720    0.71720    0.21720   1.00
O2       0.22650    0.77350    0.33820   1.00
O2       0.22650    0.83820    0.27350   1.00
O2       0.16180    0.77350    0.27350   1.00
O2       0.27350    0.72650    0.33820   1.00
O2       0.33820    0.72650    0.27350   1.00
O2       0.27350    0.66180    0.27350   1.00
O2       0.27350    0.83820    0.22650   1.00
O2       0.33820    0.77350    0.22650   1.00
O2       0.27350    0.77350    0.16180   1.00
O2       0.16180    0.72650    0.22650   1.00
O2       0.22650    0.66180    0.22650   1.00
O2       0.22650    0.72650    0.16180   1.00
C1       0.25000    0.75000    0.35520   1.00
C1       0.25000    0.85520    0.25000   1.00
C1       0.14480    0.75000    0.25000   1.00
C1       0.35520    0.75000    0.25000   1.00
C1       0.25000    0.64480    0.25000   1.00
C1       0.25000    0.75000    0.14480   1.00
O1       0.75000    0.25000    0.25000   1.00
Zn1      0.71720    0.28280    0.28280   1.00
Zn1      0.78280    0.21720    0.28280   1.00
Zn1      0.78280    0.28280    0.21720   1.00
Zn1      0.71720    0.21720    0.21720   1.00
O2       0.72650    0.27350    0.33820   1.00
O2       0.72650    0.33820    0.27350   1.00
O2       0.66180    0.27350    0.27350   1.00
O2       0.77350    0.22650    0.33820   1.00
O2       0.83820    0.22650    0.27350   1.00
O2       0.77350    0.16180    0.27350   1.00
O2       0.77350    0.33820    0.22650   1.00
O2       0.83820    0.27350    0.22650   1.00
O2       0.77350    0.27350    0.16180   1.00
O2       0.66180    0.22650    0.22650   1.00
O2       0.72650    0.16180    0.22650   1.00
O2       0.72650    0.22650    0.16180   1.00
C1       0.75000    0.25000    0.35520   1.00
C1       0.75000    0.35520    0.25000   1.00
C1       0.64480    0.25000    0.25000   1.00
C1       0.85520    0.25000    0.25000   1.00
C1       0.75000    0.14480    0.25000   1.00
C1       0.75000    0.25000    0.14480   1.00
O1       0.25000    0.25000    0.25000   1.00
Zn1      0.28280    0.21720    0.21720   1.00
Zn1      0.21720    0.28280    0.21720   1.00
Zn1      0.21720    0.21720    0.28280   1.00
Zn1      0.28280    0.28280    0.28280   1.00
O2       0.27350    0.22650    0.16180   1.00
O2       0.27350    0.16180    0.22650   1.00
O2       0.33820    0.22650    0.22650   1.00
O2       0.22650    0.27350    0.16180   1.00
O2       0.16180    0.27350    0.22650   1.00
O2       0.22650    0.33820    0.22650   1.00
O2       0.22650    0.16180    0.27350   1.00
O2       0.16180    0.22650    0.27350   1.00
O2       0.22650    0.22650    0.33820   1.00
O2       0.33820    0.27350    0.27350   1.00
O2       0.27350    0.33820    0.27350   1.00
O2       0.27350    0.27350    0.33820   1.00
C1       0.25000    0.25000    0.14480   1.00
C1       0.25000    0.14480    0.25000   1.00
C1       0.35520    0.25000    0.25000   1.00
C1       0.14480    0.25000    0.25000   1.00
C1       0.25000    0.35520    0.25000   1.00
C1       0.25000    0.25000    0.35520   1.00
O1       0.75000    0.75000    0.25000   1.00
Zn1      0.78280    0.71720    0.21720   1.00
Zn1      0.71720    0.78280    0.21720   1.00
Zn1      0.71720    0.71720    0.28280   1.00
Zn1      0.78280    0.78280    0.28280   1.00
O2       0.77350    0.72650    0.16180   1.00
O2       0.77350    0.66180    0.22650   1.00
O2       0.83820    0.72650    0.22650   1.00
O2       0.72650    0.77350    0.16180   1.00
O2       0.66180    0.77350    0.22650   1.00
O2       0.72650    0.83820    0.22650   1.00
O2       0.72650    0.66180    0.27350   1.00
O2       0.66180    0.72650    0.27350   1.00
O2       0.72650    0.72650    0.33820   1.00
O2       0.83820    0.77350    0.27350   1.00
O2       0.77350    0.83820    0.27350   1.00
O2       0.77350    0.77350    0.33820   1.00
C1       0.75000    0.75000    0.14480   1.00
C1       0.75000    0.64480    0.25000   1.00
C1       0.85520    0.75000    0.25000   1.00
C1       0.64480    0.75000    0.25000   1.00
C1       0.75000    0.85520    0.25000   1.00
C1       0.75000    0.75000    0.35520   1.00
O1       0.75000    0.25000    0.75000   1.00
Zn1      0.78280    0.21720    0.71720   1.00
Zn1      0.71720    0.28280    0.71720   1.00
Zn1      0.71720    0.21720    0.78280   1.00
Zn1      0.78280    0.28280    0.78280   1.00
O2       0.77350    0.22650    0.66180   1.00
O2       0.77350    0.16180    0.72650   1.00
O2       0.83820    0.22650    0.72650   1.00
O2       0.72650    0.27350    0.66180   1.00
O2       0.66180    0.27350    0.72650   1.00
O2       0.72650    0.33820    0.72650   1.00
O2       0.72650    0.16180    0.77350   1.00
O2       0.66180    0.22650    0.77350   1.00
O2       0.72650    0.22650    0.83820   1.00
O2       0.83820    0.27350    0.77350   1.00
O2       0.77350    0.33820    0.77350   1.00
O2       0.77350    0.27350    0.83820   1.00
C1       0.75000    0.25000    0.64480   1.00
C1       0.75000    0.14480    0.75000   1.00
C1       0.85520    0.25000    0.75000   1.00
C1       0.64480    0.25000    0.75000   1.00
C1       0.75000    0.35520    0.75000   1.00
C1       0.75000    0.25000    0.85520   1.00
O1       0.25000    0.75000    0.75000   1.00
Zn1      0.28280    0.71720    0.71720   1.00
Zn1      0.21720    0.78280    0.71720   1.00
Zn1      0.21720    0.71720    0.78280   1.00
Zn1      0.28280    0.78280    0.78280   1.00
O2       0.27350    0.72650    0.66180   1.00
O2       0.27350    0.66180    0.72650   1.00
O2       0.33820    0.72650    0.72650   1.00
O2       0.22650    0.77350    0.66180   1.00
O2       0.16180    0.77350    0.72650   1.00
O2       0.22650    0.83820    0.72650   1.00
O2       0.22650    0.66180    0.77350   1.00
O2       0.16180    0.72650    0.77350   1.00
O2       0.22650    0.72650    0.83820   1.00
O2       0.33820    0.77350    0.77350   1.00
O2       0.27350    0.83820    0.77350   1.00
O2       0.27350    0.77350    0.83820   1.00
C1       0.25000    0.75000    0.64480   1.00
C1       0.25000    0.64480    0.75000   1.00
C1       0.35520    0.75000    0.75000   1.00
C1       0.14480    0.75000    0.75000   1.00
C1       0.25000    0.85520    0.75000   1.00
C1       0.25000    0.75000    0.85520   1.00
O1       1.00000    1.00000    1.00000   1.00
Zn1      0.96720    1.03280    1.03280   1.00
Zn1      1.03280    0.96720    1.03280   1.00
Zn1      1.03280    1.03280    0.96720   1.00
Zn1      0.96720    0.96720    0.96720   1.00
O2       0.97650    1.02350    1.08820   1.00
O2       0.97650    1.08820    1.02350   1.00
O2       0.91180    1.02350    1.02350   1.00
O2       1.02350    0.97650    1.08820   1.00
O2       1.08820    0.97650    1.02350   1.00
O2       1.02350    0.91180    1.02350   1.00
O2       1.02350    1.08820    0.97650   1.00
O2       1.08820    1.02350    0.97650   1.00
O2       1.02350    1.02350    0.91180   1.00
O2       0.91180    0.97650    0.97650   1.00
O2       0.97650    0.91180    0.97650   1.00
O2       0.97650    0.97650    0.91180   1.00
C1       1.00000    1.00000    1.10520   1.00
C1       1.00000    1.10520    1.00000   1.00
C1       0.89480    1.00000    1.00000   1.00
C1       1.10520    1.00000    1.00000   1.00
C1       1.00000    0.89480    1.00000   1.00
C1       1.00000    1.00000    0.89480   1.00
O1       0.50000    0.50000    1.00000   1.00
Zn1      0.46720    0.53280    1.03280   1.00
Zn1      0.53280    0.46720    1.03280   1.00
Zn1      0.53280    0.53280    0.96720   1.00
Zn1      0.46720    0.46720    0.96720   1.00
O2       0.47650    0.52350    1.08820   1.00
O2       0.47650    0.58820    1.02350   1.00
O2       0.41180    0.52350    1.02350   1.00
O2       0.52350    0.47650    1.08820   1.00
O2       0.58820    0.47650    1.02350   1.00
O2       0.52350    0.41180    1.02350   1.00
O2       0.52350    0.58820    0.97650   1.00
O2       0.58820    0.52350    0.97650   1.00
O2       0.52350    0.52350    0.91180   1.00
O2       0.41180    0.47650    0.97650   1.00
O2       0.47650    0.41180    0.97650   1.00
O2       0.47650    0.47650    0.91180   1.00
C1       0.50000    0.50000    1.10520   1.00
C1       0.50000    0.60520    1.00000   1.00
C1       0.39480    0.50000    1.00000   1.00
C1       0.60520    0.50000    1.00000   1.00
C1       0.50000    0.39480    1.00000   1.00
C1       0.50000    0.50000    0.89480   1.00
O1       0.50000    1.00000    0.50000   1.00
Zn1      0.46720    1.03280    0.53280   1.00
Zn1      0.53280    0.96720    0.53280   1.00
Zn1      0.53280    1.03280    0.46720   1.00
Zn1      0.46720    0.96720    0.46720   1.00
O2       0.47650    1.02350    0.58820   1.00
O2       0.47650    1.08820    0.52350   1.00
O2       0.41180    1.02350    0.52350   1.00
O2       0.52350    0.97650    0.58820   1.00
O2       0.58820    0.97650    0.52350   1.00
O2       0.52350    0.91180    0.52350   1.00
O2       0.52350    1.08820    0.47650   1.00
O2       0.58820    1.02350    0.47650   1.00
O2       0.52350    1.02350    0.41180   1.00
O2       0.41180    0.97650    0.47650   1.00
O2       0.47650    0.91180    0.47650   1.00
O2       0.47650    0.97650    0.41180   1.00
C1       0.50000    1.00000    0.60520   1.00
C1       0.50000    1.10520    0.50000   1.00
C1       0.39480    1.00000    0.50000   1.00
C1       0.60520    1.00000    0.50000   1.00
C1       0.50000    0.89480    0.50000   1.00
C1       0.50000    1.00000    0.39480   1.00
O1       1.00000    0.50000    0.50000   1.00
Zn1      0.96720    0.53280    0.53280   1.00
Zn1      1.03280    0.46720    0.53280   1.00
Zn1      1.03280    0.53280    0.46720   1.00
Zn1      0.96720    0.46720    0.46720   1.00
O2       0.97650    0.52350    0.58820   1.00
O2       0.97650    0.58820    0.52350   1.00
O2       0.91180    0.52350    0.52350   1.00
O2       1.02350    0.47650    0.58820   1.00
O2       1.08820    0.47650    0.52350   1.00
O2       1.02350    0.41180    0.52350   1.00
O2       1.02350    0.58820    0.47650   1.00
O2       1.08820    0.52350    0.47650   1.00
O2       1.02350    0.52350    0.41180   1.00
O2       0.91180    0.47650    0.47650   1.00
O2       0.97650    0.41180    0.47650   1.00
O2       0.97650    0.47650    0.41180   1.00
C1       1.00000    0.50000    0.60520   1.00
C1       1.00000    0.60520    0.50000   1.00
C1       0.89480    0.50000    0.50000   1.00
C1       1.10520    0.50000    0.50000   1.00
C1       1.00000    0.39480    0.50000   1.00
C1       1.00000    0.50000    0.39480   1.00
O1       0.50000    0.50000    0.50000   1.00
Zn1      0.53280    0.46720    0.46720   1.00
Zn1      0.46720    0.53280    0.46720   1.00
Zn1      0.46720    0.46720    0.53280   1.00
Zn1      0.53280    0.53280    0.53280   1.00
O2       0.52350    0.47650    0.41180   1.00
O2       0.52350    0.41180    0.47650   1.00
O2       0.58820    0.47650    0.47650   1.00
O2       0.47650    0.52350    0.41180   1.00
O2       0.41180    0.52350    0.47650   1.00
O2       0.47650    0.58820    0.47650   1.00
O2       0.47650    0.41180    0.52350   1.00
O2       0.41180    0.47650    0.52350   1.00
O2       0.47650    0.47650    0.58820   1.00
O2       0.58820    0.52350    0.52350   1.00
O2       0.52350    0.58820    0.52350   1.00
O2       0.52350    0.52350    0.58820   1.00
C1       0.50000    0.50000    0.39480   1.00
C1       0.50000    0.39480    0.50000   1.00
C1       0.60520    0.50000    0.50000   1.00
C1       0.39480    0.50000    0.50000   1.00
C1       0.50000    0.60520    0.50000   1.00
C1       0.50000    0.50000    0.60520   1.00
O1       1.00000    1.00000    0.50000   1.00
Zn1      1.03280    0.96720    0.46720   1.00
Zn1      0.96720    1.03280    0.46720   1.00
Zn1      0.96720    0.96720    0.53280   1.00
Zn1      1.03280    1.03280    0.53280   1.00
O2       1.02350    0.97650    0.41180   1.00
O2       1.02350    0.91180    0.47650   1.00
O2       1.08820    0.97650    0.47650   1.00
O2       0.97650    1.02350    0.41180   1.00
O2       0.91180    1.02350    0.47650   1.00
O2       0.97650    1.08820    0.47650   1.00
O2       0.97650    0.91180    0.52350   1.00
O2       0.91180    0.97650    0.52350   1.00
O2       0.97650    0.97650    0.58820   1.00
O2       1.08820    1.02350    0.52350   1.00
O2       1.02350    1.08820    0.52350   1.00
O2       1.02350    1.02350    0.58820   1.00
C1       1.00000    1.00000    0.39480   1.00
C1       1.00000    0.89480    0.50000   1.00
C1       1.10520    1.00000    0.50000   1.00
C1       0.89480    1.00000    0.50000   1.00
C1       1.00000    1.10520    0.50000   1.00
C1       1.00000    1.00000    0.60520   1.00
O1       1.00000    0.50000    1.00000   1.00
Zn1      1.03280    0.46720    0.96720   1.00
Zn1      0.96720    0.53280    0.96720   1.00
Zn1      0.96720    0.46720    1.03280   1.00
Zn1      1.03280    0.53280    1.03280   1.00
O2       1.02350    0.47650    0.91180   1.00
O2       1.02350    0.41180    0.97650   1.00
O2       1.08820    0.47650    0.97650   1.00
O2       0.97650    0.52350    0.91180   1.00
O2       0.91180    0.52350    0.97650   1.00
O2       0.97650    0.58820    0.97650   1.00
O2       0.97650    0.41180    1.02350   1.00
O2       0.91180    0.47650    1.02350   1.00
O2       0.97650    0.47650    1.08820   1.00
O2       1.08820    0.52350    1.02350   1.00
O2       1.02350    0.58820    1.02350   1.00
O2       1.02350    0.52350    1.08820   1.00
C1       1.00000    0.50000    0.89480   1.00
C1       1.00000    0.39480    1.00000   1.00
C1       1.10520    0.50000    1.00000   1.00
C1       0.89480    0.50000    1.00000   1.00
C1       1.00000    0.60520    1.00000   1.00
C1       1.00000    0.50000    1.10520   1.00
O1       0.50000    1.00000    1.00000   1.00
Zn1      0.53280    0.96720    0.96720   1.00
Zn1      0.46720    1.03280    0.96720   1.00
Zn1      0.46720    0.96720    1.03280   1.00
Zn1      0.53280    1.03280    1.03280   1.00
O2       0.52350    0.97650    0.91180   1.00
O2       0.52350    0.91180    0.97650   1.00
O2       0.58820    0.97650    0.97650   1.00
O2       0.47650    1.02350    0.91180   1.00
O2       0.41180    1.02350    0.97650   1.00
O2       0.47650    1.08820    0.97650   1.00
O2       0.47650    0.91180    1.02350   1.00
O2       0.41180    0.97650    1.02350   1.00
O2       0.47650    0.97650    1.08820   1.00
O2       0.58820    1.02350    1.02350   1.00
O2       0.52350    1.08820    1.02350   1.00
O2       0.52350    1.02350    1.08820   1.00
C1       0.50000    1.00000    0.89480   1.00
C1       0.50000    0.89480    1.00000   1.00
C1       0.60520    1.00000    1.00000   1.00
C1       0.39480    1.00000    1.00000   1.00
C1       0.50000    1.10520    1.00000   1.00
C1       0.50000    1.00000    1.10520   1.00
C4       0.75015    0.74988    0.97915   1.00
C4       0.74985    0.75012    1.02085   1.00
C3a      0.78573    0.75058    0.95746   1.00
C3       0.75682    0.71570    1.04232   1.00
C3       0.71505    0.74880    0.95768   1.00
C3a      0.74241    0.78492    1.04254   1.00
C2       0.74995    0.74993    0.89488   1.00
C2       0.74995    0.74994    1.10512   1.00
C3       0.78505    0.75068    0.91595   1.00
C3       0.75697    0.71568    1.08363   1.00
C3       0.71499    0.74895    0.91637   1.00
C3       0.74265    0.78428    1.08405   1.00
C5       0.82494    0.75187    0.97772   1.00
H1       0.76257    0.68871    1.02691   1.00
H1       0.81216    0.75142    0.89979   1.00
H1       0.76267    0.68869    1.09901   1.00
H1       0.68742    0.74833    0.90099   1.00
H1       0.73718    0.81084    1.10021   1.00
C5       0.73470    0.82339    1.02228   1.00
H1       0.68746    0.74824    0.97309   1.00
H2       0.74080    0.84791    1.04256   1.00
H2       0.75501    0.82716    0.99731   1.00
H2       0.84743    0.76341    0.95744   1.00
H2       0.82397    0.77250    1.00269   1.00
N1       0.69432    0.82566    1.00857   1.00
C6       0.66227    0.82692    1.03073   1.00
C6       0.68251    0.82799    0.97154   1.00
C6       0.62954    0.82956    1.00759   1.00
C6       0.64241    0.83025    0.96995   1.00
H3       0.66248    0.82565    1.06197   1.00
H3       0.70183    0.82774    0.94700   1.00
H3       0.59963    0.83087    1.01713   1.00
H3       0.62455    0.83215    0.94425   1.00
N1       0.83638    0.71308    0.99143   1.00
C6       0.84134    0.70211    1.02846   1.00
C6       0.84492    0.68216    0.96927   1.00
C6       0.85270    0.66359    1.03005   1.00
C6       0.85497    0.65090    0.99241   1.00
H3       0.83669    0.72086    1.05300   1.00
H3       0.84364    0.68207    0.93803   1.00
H3       0.85864    0.64663    1.05575   1.00
H3       0.86309    0.62208    0.98287   1.00
C4       0.74988    0.97915    0.75015   1.00
C4       0.75012    1.02085    0.74985   1.00
C3a      0.75058    0.95746    0.78573   1.00
C3       0.71570    1.04232    0.75682   1.00
C3       0.74880    0.95768    0.71505   1.00
C3a      0.78492    1.04254    0.74241   1.00
C2       0.74993    0.89488    0.74995   1.00
C2       0.74994    1.10512    0.74995   1.00
C3       0.75068    0.91595    0.78505   1.00
C3       0.71568    1.08363    0.75697   1.00
C3       0.74895    0.91637    0.71499   1.00
C3       0.78428    1.08405    0.74265   1.00
C5       0.75187    0.97772    0.82494   1.00
H1       0.68871    1.02691    0.76257   1.00
H1       0.75142    0.89979    0.81216   1.00
H1       0.68869    1.09901    0.76267   1.00
H1       0.74833    0.90099    0.68742   1.00
H1       0.81084    1.10021    0.73718   1.00
C5       0.82339    1.02228    0.73470   1.00
H1       0.74824    0.97309    0.68746   1.00
H2       0.84791    1.04256    0.74080   1.00
H2       0.82716    0.99731    0.75501   1.00
H2       0.76341    0.95744    0.84743   1.00
H2       0.77250    1.00269    0.82397   1.00
N1       0.82566    1.00857    0.69432   1.00
C6       0.82692    1.03073    0.66227   1.00
C6       0.82799    0.97154    0.68251   1.00
C6       0.82956    1.00759    0.62954   1.00
C6       0.83025    0.96995    0.64241   1.00
H3       0.82565    1.06197    0.66248   1.00
H3       0.82774    0.94700    0.70183   1.00
H3       0.83087    1.01713    0.59963   1.00
H3       0.83215    0.94425    0.62455   1.00
N1       0.71308    0.99143    0.83638   1.00
C6       0.70211    1.02846    0.84134   1.00
C6       0.68216    0.96927    0.84492   1.00
C6       0.66359    1.03005    0.85270   1.00
C6       0.65090    0.99241    0.85497   1.00
H3       0.72086    1.05300    0.83669   1.00
H3       0.68207    0.93803    0.84364   1.00
H3       0.64663    1.05575    0.85864   1.00
H3       0.62208    0.98287    0.86309   1.00
C4       0.52085    0.75015    0.75012   1.00
C4       0.47915    0.74985    0.74988   1.00
C3a      0.54254    0.78573    0.74942   1.00
C3       0.45768    0.75682    0.78430   1.00
C3       0.54232    0.71505    0.75120   1.00
C3a      0.45746    0.74241    0.71508   1.00
C2       0.60512    0.74995    0.75007   1.00
C2       0.39488    0.74995    0.75006   1.00
C3       0.58405    0.78505    0.74932   1.00
C3       0.41637    0.75697    0.78432   1.00
C3       0.58363    0.71499    0.75105   1.00
C3       0.41595    0.74265    0.71572   1.00
C5       0.52228    0.82494    0.74813   1.00
H1       0.47309    0.76257    0.81129   1.00
H1       0.60021    0.81216    0.74858   1.00
H1       0.40099    0.76267    0.81131   1.00
H1       0.59901    0.68742    0.75167   1.00
H1       0.39979    0.73718    0.68916   1.00
C5       0.47772    0.73470    0.67661   1.00
H1       0.52691    0.68746    0.75176   1.00
H2       0.45744    0.74080    0.65209   1.00
H2       0.50269    0.75501    0.67284   1.00
H2       0.54256    0.84743    0.73659   1.00
H2       0.49731    0.82397    0.72750   1.00
N1       0.49143    0.69432    0.67434   1.00
C6       0.46927    0.66227    0.67308   1.00
C6       0.52846    0.68251    0.67201   1.00
C6       0.49241    0.62954    0.67044   1.00
C6       0.53005    0.64241    0.66975   1.00
H3       0.43803    0.66248    0.67435   1.00
H3       0.55300    0.70183    0.67226   1.00
H3       0.48287    0.59963    0.66913   1.00
H3       0.55575    0.62455    0.66785   1.00
N1       0.50857    0.83638    0.78692   1.00
C6       0.47154    0.84134    0.79789   1.00
C6       0.53073    0.84492    0.81784   1.00
C6       0.46995    0.85270    0.83641   1.00
C6       0.50759    0.85497    0.84910   1.00
H3       0.44700    0.83669    0.77914   1.00
H3       0.56197    0.84364    0.81793   1.00
H3       0.44425    0.85864    0.85337   1.00
H3       0.51713    0.86309    0.87792   1.00
C4       0.97915    0.75015    0.74988   1.00
C4       1.02085    0.74985    0.75012   1.00
C3a      0.95746    0.78573    0.75058   1.00
C3       1.04232    0.75682    0.71570   1.00
C3       0.95768    0.71505    0.74880   1.00
C3a      1.04254    0.74241    0.78492   1.00
C2       0.89488    0.74995    0.74993   1.00
C2       1.10512    0.74995    0.74994   1.00
C3       0.91595    0.78505    0.75068   1.00
C3       1.08363    0.75697    0.71568   1.00
C3       0.91637    0.71499    0.74895   1.00
C3       1.08405    0.74265    0.78428   1.00
C5       0.97772    0.82494    0.75187   1.00
H1       1.02691    0.76257    0.68871   1.00
H1       0.89979    0.81216    0.75142   1.00
H1       1.09901    0.76267    0.68869   1.00
H1       0.90099    0.68742    0.74833   1.00
H1       1.10021    0.73718    0.81084   1.00
C5       1.02228    0.73470    0.82339   1.00
H1       0.97309    0.68746    0.74824   1.00
H2       1.04256    0.74080    0.84791   1.00
H2       0.99731    0.75501    0.82716   1.00
H2       0.95744    0.84743    0.76341   1.00
H2       1.00269    0.82397    0.77250   1.00
N1       1.00857    0.69432    0.82566   1.00
C6       1.03073    0.66227    0.82692   1.00
C6       0.97154    0.68251    0.82799   1.00
C6       1.00759    0.62954    0.82956   1.00
C6       0.96995    0.64241    0.83025   1.00
H3       1.06197    0.66248    0.82565   1.00
H3       0.94700    0.70183    0.82774   1.00
H3       1.01713    0.59963    0.83087   1.00
H3       0.94425    0.62455    0.83215   1.00
N1       0.99143    0.83638    0.71308   1.00
C6       1.02846    0.84134    0.70211   1.00
C6       0.96927    0.84492    0.68216   1.00
C6       1.03005    0.85270    0.66359   1.00
C6       0.99241    0.85497    0.65090   1.00
H3       1.05300    0.83669    0.72086   1.00
H3       0.93803    0.84364    0.68207   1.00
H3       1.05575    0.85864    0.64663   1.00
H3       0.98287    0.86309    0.62208   1.00
C4       0.75012    0.52085    0.75015   1.00
C4       0.74988    0.47915    0.74985   1.00
C3a      0.74942    0.54254    0.78573   1.00
C3       0.78430    0.45768    0.75682   1.00
C3       0.75120    0.54232    0.71505   1.00
C3a      0.71508    0.45746    0.74241   1.00
C2       0.75007    0.60512    0.74995   1.00
C2       0.75006    0.39488    0.74995   1.00
C3       0.74932    0.58405    0.78505   1.00
C3       0.78432    0.41637    0.75697   1.00
C3       0.75105    0.58363    0.71499   1.00
C3       0.71572    0.41595    0.74265   1.00
C5       0.74813    0.52228    0.82494   1.00
H1       0.81129    0.47309    0.76257   1.00
H1       0.74858    0.60021    0.81216   1.00
H1       0.81131    0.40099    0.76267   1.00
H1       0.75167    0.59901    0.68742   1.00
H1       0.68916    0.39979    0.73718   1.00
C5       0.67661    0.47772    0.73470   1.00
H1       0.75176    0.52691    0.68746   1.00
H2       0.65209    0.45744    0.74080   1.00
H2       0.67284    0.50269    0.75501   1.00
H2       0.73659    0.54256    0.84743   1.00
H2       0.72750    0.49731    0.82397   1.00
N1       0.67434    0.49143    0.69432   1.00
C6       0.67308    0.46927    0.66227   1.00
C6       0.67201    0.52846    0.68251   1.00
C6       0.67044    0.49241    0.62954   1.00
C6       0.66975    0.53005    0.64241   1.00
H3       0.67435    0.43803    0.66248   1.00
H3       0.67226    0.55300    0.70183   1.00
H3       0.66913    0.48287    0.59963   1.00
H3       0.66785    0.55575    0.62455   1.00
N1       0.78692    0.50857    0.83638   1.00
C6       0.79789    0.47154    0.84134   1.00
C6       0.81784    0.53073    0.84492   1.00
C6       0.83641    0.46995    0.85270   1.00
C6       0.84910    0.50759    0.85497   1.00
H3       0.77914    0.44700    0.83669   1.00
H3       0.81793    0.56197    0.84364   1.00
H3       0.85337    0.44425    0.85864   1.00
H3       0.87792    0.51713    0.86309   1.00
C4       0.75015    0.75012    0.52085   1.00
C4       0.74985    0.74988    0.47915   1.00
C3a      0.78573    0.74942    0.54254   1.00
C3       0.75682    0.78430    0.45768   1.00
C3       0.71505    0.75120    0.54232   1.00
C3a      0.74241    0.71508    0.45746   1.00
C2       0.74995    0.75007    0.60512   1.00
C2       0.74995    0.75006    0.39488   1.00
C3       0.78505    0.74932    0.58405   1.00
C3       0.75697    0.78432    0.41637   1.00
C3       0.71499    0.75105    0.58363   1.00
C3       0.74265    0.71572    0.41595   1.00
C5       0.82494    0.74813    0.52228   1.00
H1       0.76257    0.81129    0.47309   1.00
H1       0.81216    0.74858    0.60021   1.00
H1       0.76267    0.81131    0.40099   1.00
H1       0.68742    0.75167    0.59901   1.00
H1       0.73718    0.68916    0.39979   1.00
C5       0.73470    0.67661    0.47772   1.00
H1       0.68746    0.75176    0.52691   1.00
H2       0.74080    0.65209    0.45744   1.00
H2       0.75501    0.67284    0.50269   1.00
H2       0.84743    0.73659    0.54256   1.00
H2       0.82397    0.72750    0.49731   1.00
N1       0.69432    0.67434    0.49143   1.00
C6       0.66227    0.67308    0.46927   1.00
C6       0.68251    0.67201    0.52846   1.00
C6       0.62954    0.67044    0.49241   1.00
C6       0.64241    0.66975    0.53005   1.00
H3       0.66248    0.67435    0.43803   1.00
H3       0.70183    0.67226    0.55300   1.00
H3       0.59963    0.66913    0.48287   1.00
H3       0.62455    0.66785    0.55575   1.00
N1       0.83638    0.78692    0.50857   1.00
C6       0.84134    0.79789    0.47154   1.00
C6       0.84492    0.81784    0.53073   1.00
C6       0.85270    0.83641    0.46995   1.00
C6       0.85497    0.84910    0.50759   1.00
H3       0.83669    0.77914    0.44700   1.00
H3       0.84364    0.81793    0.56197   1.00
H3       0.85864    0.85337    0.44425   1.00
H3       0.86309    0.87792    0.51713   1.00
C4       0.25015    0.24988    0.97915   1.00
C4       0.24985    0.25012    1.02085   1.00
C3a      0.28573    0.25058    0.95746   1.00
C3       0.25682    0.21570    1.04232   1.00
C3       0.21505    0.24880    0.95768   1.00
C3a      0.24241    0.28492    1.04254   1.00
C2       0.24995    0.24993    0.89488   1.00
C2       0.24995    0.24994    1.10512   1.00
C3       0.28505    0.25068    0.91595   1.00
C3       0.25697    0.21568    1.08363   1.00
C3       0.21499    0.24895    0.91637   1.00
C3       0.24265    0.28428    1.08405   1.00
C5       0.32494    0.25187    0.97772   1.00
H1       0.26257    0.18871    1.02691   1.00
H1       0.31216    0.25142    0.89979   1.00
H1       0.26267    0.18869    1.09901   1.00
H1       0.18742    0.24833    0.90099   1.00
H1       0.23718    0.31084    1.10021   1.00
C5       0.23470    0.32339    1.02228   1.00
H1       0.18746    0.24824    0.97309   1.00
H2       0.24080    0.34791    1.04256   1.00
H2       0.25501    0.32716    0.99731   1.00
H2       0.34743    0.26341    0.95744   1.00
H2       0.32397    0.27250    1.00269   1.00
N1       0.19432    0.32566    1.00857   1.00
C6       0.16227    0.32692    1.03073   1.00
C6       0.18251    0.32799    0.97154   1.00
C6       0.12954    0.32956    1.00759   1.00
C6       0.14241    0.33025    0.96995   1.00
H3       0.16248    0.32565    1.06197   1.00
H3       0.20183    0.32774    0.94700   1.00
H3       0.09963    0.33087    1.01713   1.00
H3       0.12455    0.33215    0.94425   1.00
N1       0.33638    0.21308    0.99143   1.00
C6       0.34134    0.20211    1.02846   1.00
C6       0.34492    0.18216    0.96927   1.00
C6       0.35270    0.16359    1.03005   1.00
C6       0.35497    0.15090    0.99241   1.00
H3       0.33669    0.22086    1.05300   1.00
H3       0.34364    0.18207    0.93803   1.00
H3       0.35864    0.14663    1.05575   1.00
H3       0.36309    0.12208    0.98287   1.00
C4       0.24988    0.47915    0.75015   1.00
C4       0.25012    0.52085    0.74985   1.00
C3a      0.25058    0.45746    0.78573   1.00
C3       0.21570    0.54232    0.75682   1.00
C3       0.24880    0.45768    0.71505   1.00
C3a      0.28492    0.54254    0.74241   1.00
C2       0.24993    0.39488    0.74995   1.00
C2       0.24994    0.60512    0.74995   1.00
C3       0.25068    0.41595    0.78505   1.00
C3       0.21568    0.58363    0.75697   1.00
C3       0.24895    0.41637    0.71499   1.00
C3       0.28428    0.58405    0.74265   1.00
C5       0.25187    0.47772    0.82494   1.00
H1       0.18871    0.52691    0.76257   1.00
H1       0.25142    0.39979    0.81216   1.00
H1       0.18869    0.59901    0.76267   1.00
H1       0.24833    0.40099    0.68742   1.00
H1       0.31084    0.60021    0.73718   1.00
C5       0.32339    0.52228    0.73470   1.00
H1       0.24824    0.47309    0.68746   1.00
H2       0.34791    0.54256    0.74080   1.00
H2       0.32716    0.49731    0.75501   1.00
H2       0.26341    0.45744    0.84743   1.00
H2       0.27250    0.50269    0.82397   1.00
N1       0.32566    0.50857    0.69432   1.00
C6       0.32692    0.53073    0.66227   1.00
C6       0.32799    0.47154    0.68251   1.00
C6       0.32956    0.50759    0.62954   1.00
C6       0.33025    0.46995    0.64241   1.00
H3       0.32565    0.56197    0.66248   1.00
H3       0.32774    0.44700    0.70183   1.00
H3       0.33087    0.51713    0.59963   1.00
H3       0.33215    0.44425    0.62455   1.00
N1       0.21308    0.49143    0.83638   1.00
C6       0.20211    0.52846    0.84134   1.00
C6       0.18216    0.46927    0.84492   1.00
C6       0.16359    0.53005    0.85270   1.00
C6       0.15090    0.49241    0.85497   1.00
H3       0.22086    0.55300    0.83669   1.00
H3       0.18207    0.43803    0.84364   1.00
H3       0.14663    0.55575    0.85864   1.00
H3       0.12208    0.48287    0.86309   1.00
C4       0.02085    0.25015    0.75012   1.00
C4       -0.02085   0.24985    0.74988   1.00
C3a      0.04254    0.28573    0.74942   1.00
C3       -0.04232   0.25682    0.78430   1.00
C3       0.04232    0.21505    0.75120   1.00
C3a      -0.04254   0.24241    0.71508   1.00
C2       0.10512    0.24995    0.75007   1.00
C2       -0.10512   0.24995    0.75006   1.00
C3       0.08405    0.28505    0.74932   1.00
C3       -0.08363   0.25697    0.78432   1.00
C3       0.08363    0.21499    0.75105   1.00
C3       -0.08405   0.24265    0.71572   1.00
C5       0.02228    0.32494    0.74813   1.00
H1       -0.02691   0.26257    0.81129   1.00
H1       0.10021    0.31216    0.74858   1.00
H1       -0.09901   0.26267    0.81131   1.00
H1       0.09901    0.18742    0.75167   1.00
H1       -0.10021   0.23718    0.68916   1.00
C5       -0.02228   0.23470    0.67661   1.00
H1       0.02691    0.18746    0.75176   1.00
H2       -0.04256   0.24080    0.65209   1.00
H2       0.00269    0.25501    0.67284   1.00
H2       0.04256    0.34743    0.73659   1.00
H2       -0.00269   0.32397    0.72750   1.00
N1       -0.00857   0.19432    0.67434   1.00
C6       -0.03073   0.16227    0.67308   1.00
C6       0.02846    0.18251    0.67201   1.00
C6       -0.00759   0.12954    0.67044   1.00
C6       0.03005    0.14241    0.66975   1.00
H3       -0.06197   0.16248    0.67435   1.00
H3       0.05300    0.20183    0.67226   1.00
H3       -0.01713   0.09963    0.66913   1.00
H3       0.05575    0.12455    0.66785   1.00
N1       0.00857    0.33638    0.78692   1.00
C6       -0.02846   0.34134    0.79789   1.00
C6       0.03073    0.34492    0.81784   1.00
C6       -0.03005   0.35270    0.83641   1.00
C6       0.00759    0.35497    0.84910   1.00
H3       -0.05300   0.33669    0.77914   1.00
H3       0.06197    0.34364    0.81793   1.00
H3       -0.05575   0.35864    0.85337   1.00
H3       0.01713    0.36309    0.87792   1.00
C4       0.47915    0.25015    0.74988   1.00
C4       0.52085    0.24985    0.75012   1.00
C3a      0.45746    0.28573    0.75058   1.00
C3       0.54232    0.25682    0.71570   1.00
C3       0.45768    0.21505    0.74880   1.00
C3a      0.54254    0.24241    0.78492   1.00
C2       0.39488    0.24995    0.74993   1.00
C2       0.60512    0.24995    0.74994   1.00
C3       0.41595    0.28505    0.75068   1.00
C3       0.58363    0.25697    0.71568   1.00
C3       0.41637    0.21499    0.74895   1.00
C3       0.58405    0.24265    0.78428   1.00
C5       0.47772    0.32494    0.75187   1.00
H1       0.52691    0.26257    0.68871   1.00
H1       0.39979    0.31216    0.75142   1.00
H1       0.59901    0.26267    0.68869   1.00
H1       0.40099    0.18742    0.74833   1.00
H1       0.60021    0.23718    0.81084   1.00
C5       0.52228    0.23470    0.82339   1.00
H1       0.47309    0.18746    0.74824   1.00
H2       0.54256    0.24080    0.84791   1.00
H2       0.49731    0.25501    0.82716   1.00
H2       0.45744    0.34743    0.76341   1.00
H2       0.50269    0.32397    0.77250   1.00
N1       0.50857    0.19432    0.82566   1.00
C6       0.53073    0.16227    0.82692   1.00
C6       0.47154    0.18251    0.82799   1.00
C6       0.50759    0.12954    0.82956   1.00
C6       0.46995    0.14241    0.83025   1.00
H3       0.56197    0.16248    0.82565   1.00
H3       0.44700    0.20183    0.82774   1.00
H3       0.51713    0.09963    0.83087   1.00
H3       0.44425    0.12455    0.83215   1.00
N1       0.49143    0.33638    0.71308   1.00
C6       0.52846    0.34134    0.70211   1.00
C6       0.46927    0.34492    0.68216   1.00
C6       0.53005    0.35270    0.66359   1.00
C6       0.49241    0.35497    0.65090   1.00
H3       0.55300    0.33669    0.72086   1.00
H3       0.43803    0.34364    0.68207   1.00
H3       0.55575    0.35864    0.64663   1.00
H3       0.48287    0.36309    0.62208   1.00
C4       0.25012    0.02085    0.75015   1.00
C4       0.24988    -0.02085   0.74985   1.00
C3a      0.24942    0.04254    0.78573   1.00
C3       0.28430    -0.04232   0.75682   1.00
C3       0.25120    0.04232    0.71505   1.00
C3a      0.21508    -0.04254   0.74241   1.00
C2       0.25007    0.10512    0.74995   1.00
C2       0.25006    -0.10512   0.74995   1.00
C3       0.24932    0.08405    0.78505   1.00
C3       0.28432    -0.08363   0.75697   1.00
C3       0.25105    0.08363    0.71499   1.00
C3       0.21572    -0.08405   0.74265   1.00
C5       0.24813    0.02228    0.82494   1.00
H1       0.31129    -0.02691   0.76257   1.00
H1       0.24858    0.10021    0.81216   1.00
H1       0.31131    -0.09901   0.76267   1.00
H1       0.25167    0.09901    0.68742   1.00
H1       0.18916    -0.10021   0.73718   1.00
C5       0.17661    -0.02228   0.73470   1.00
H1       0.25176    0.02691    0.68746   1.00
H2       0.15209    -0.04256   0.74080   1.00
H2       0.17284    0.00269    0.75501   1.00
H2       0.23659    0.04256    0.84743   1.00
H2       0.22750    -0.00269   0.82397   1.00
N1       0.17434    -0.00857   0.69432   1.00
C6       0.17308    -0.03073   0.66227   1.00
C6       0.17201    0.02846    0.68251   1.00
C6       0.17044    -0.00759   0.62954   1.00
C6       0.16975    0.03005    0.64241   1.00
H3       0.17435    -0.06197   0.66248   1.00
H3       0.17226    0.05300    0.70183   1.00
H3       0.16913    -0.01713   0.59963   1.00
H3       0.16785    0.05575    0.62455   1.00
N1       0.28692    0.00857    0.83638   1.00
C6       0.29789    -0.02846   0.84134   1.00
C6       0.31784    0.03073    0.84492   1.00
C6       0.33641    -0.03005   0.85270   1.00
C6       0.34910    0.00759    0.85497   1.00
H3       0.27914    -0.05300   0.83669   1.00
H3       0.31793    0.06197    0.84364   1.00
H3       0.35337    -0.05575   0.85864   1.00
H3       0.37792    0.01713    0.86309   1.00
C4       0.25015    0.25012    0.52085   1.00
C4       0.24985    0.24988    0.47915   1.00
C3a      0.28573    0.24942    0.54254   1.00
C3       0.25682    0.28430    0.45768   1.00
C3       0.21505    0.25120    0.54232   1.00
C3a      0.24241    0.21508    0.45746   1.00
C2       0.24995    0.25007    0.60512   1.00
C2       0.24995    0.25006    0.39488   1.00
C3       0.28505    0.24932    0.58405   1.00
C3       0.25697    0.28432    0.41637   1.00
C3       0.21499    0.25105    0.58363   1.00
C3       0.24265    0.21572    0.41595   1.00
C5       0.32494    0.24813    0.52228   1.00
H1       0.26257    0.31129    0.47309   1.00
H1       0.31216    0.24858    0.60021   1.00
H1       0.26267    0.31131    0.40099   1.00
H1       0.18742    0.25167    0.59901   1.00
H1       0.23718    0.18916    0.39979   1.00
C5       0.23470    0.17661    0.47772   1.00
H1       0.18746    0.25176    0.52691   1.00
H2       0.24080    0.15209    0.45744   1.00
H2       0.25501    0.17284    0.50269   1.00
H2       0.34743    0.23659    0.54256   1.00
H2       0.32397    0.22750    0.49731   1.00
N1       0.19432    0.17434    0.49143   1.00
C6       0.16227    0.17308    0.46927   1.00
C6       0.18251    0.17201    0.52846   1.00
C6       0.12954    0.17044    0.49241   1.00
C6       0.14241    0.16975    0.53005   1.00
H3       0.16248    0.17435    0.43803   1.00
H3       0.20183    0.17226    0.55300   1.00
H3       0.09963    0.16913    0.48287   1.00
H3       0.12455    0.16785    0.55575   1.00
N1       0.33638    0.28692    0.50857   1.00
C6       0.34134    0.29789    0.47154   1.00
C6       0.34492    0.31784    0.53073   1.00
C6       0.35270    0.33641    0.46995   1.00
C6       0.35497    0.34910    0.50759   1.00
H3       0.33669    0.27914    0.44700   1.00
H3       0.34364    0.31793    0.56197   1.00
H3       0.35864    0.35337    0.44425   1.00
H3       0.36309    0.37792    0.51713   1.00
C4       0.25015    0.74988    0.47915   1.00
C4       0.24985    0.75012    0.52085   1.00
C3a      0.28573    0.75058    0.45746   1.00
C3       0.25682    0.71570    0.54232   1.00
C3       0.21505    0.74880    0.45768   1.00
C3a      0.24241    0.78492    0.54254   1.00
C2       0.24995    0.74993    0.39488   1.00
C2       0.24995    0.74994    0.60512   1.00
C3       0.28505    0.75068    0.41595   1.00
C3       0.25697    0.71568    0.58363   1.00
C3       0.21499    0.74895    0.41637   1.00
C3       0.24265    0.78428    0.58405   1.00
C5       0.32494    0.75187    0.47772   1.00
H1       0.26257    0.68871    0.52691   1.00
H1       0.31216    0.75142    0.39979   1.00
H1       0.26267    0.68869    0.59901   1.00
H1       0.18742    0.74833    0.40099   1.00
H1       0.23718    0.81084    0.60021   1.00
C5       0.23470    0.82339    0.52228   1.00
H1       0.18746    0.74824    0.47309   1.00
H2       0.24080    0.84791    0.54256   1.00
H2       0.25501    0.82716    0.49731   1.00
H2       0.34743    0.76341    0.45744   1.00
H2       0.32397    0.77250    0.50269   1.00
N1       0.19432    0.82566    0.50857   1.00
C6       0.16227    0.82692    0.53073   1.00
C6       0.18251    0.82799    0.47154   1.00
C6       0.12954    0.82956    0.50759   1.00
C6       0.14241    0.83025    0.46995   1.00
H3       0.16248    0.82565    0.56197   1.00
H3       0.20183    0.82774    0.44700   1.00
H3       0.09963    0.83087    0.51713   1.00
H3       0.12455    0.83215    0.44425   1.00
N1       0.33638    0.71308    0.49143   1.00
C6       0.34134    0.70211    0.52846   1.00
C6       0.34492    0.68216    0.46927   1.00
C6       0.35270    0.66359    0.53005   1.00
C6       0.35497    0.65090    0.49241   1.00
H3       0.33669    0.72086    0.55300   1.00
H3       0.34364    0.68207    0.43803   1.00
H3       0.35864    0.64663    0.55575   1.00
H3       0.36309    0.62208    0.48287   1.00
C4       0.24988    0.97915    0.25015   1.00
C4       0.25012    1.02085    0.24985   1.00
C3a      0.25058    0.95746    0.28573   1.00
C3       0.21570    1.04232    0.25682   1.00
C3       0.24880    0.95768    0.21505   1.00
C3a      0.28492    1.04254    0.24241   1.00
C2       0.24993    0.89488    0.24995   1.00
C2       0.24994    1.10512    0.24995   1.00
C3       0.25068    0.91595    0.28505   1.00
C3       0.21568    1.08363    0.25697   1.00
C3       0.24895    0.91637    0.21499   1.00
C3       0.28428    1.08405    0.24265   1.00
C5       0.25187    0.97772    0.32494   1.00
H1       0.18871    1.02691    0.26257   1.00
H1       0.25142    0.89979    0.31216   1.00
H1       0.18869    1.09901    0.26267   1.00
H1       0.24833    0.90099    0.18742   1.00
H1       0.31084    1.10021    0.23718   1.00
C5       0.32339    1.02228    0.23470   1.00
H1       0.24824    0.97309    0.18746   1.00
H2       0.34791    1.04256    0.24080   1.00
H2       0.32716    0.99731    0.25501   1.00
H2       0.26341    0.95744    0.34743   1.00
H2       0.27250    1.00269    0.32397   1.00
N1       0.32566    1.00857    0.19432   1.00
C6       0.32692    1.03073    0.16227   1.00
C6       0.32799    0.97154    0.18251   1.00
C6       0.32956    1.00759    0.12954   1.00
C6       0.33025    0.96995    0.14241   1.00
H3       0.32565    1.06197    0.16248   1.00
H3       0.32774    0.94700    0.20183   1.00
H3       0.33087    1.01713    0.09963   1.00
H3       0.33215    0.94425    0.12455   1.00
N1       0.21308    0.99143    0.33638   1.00
C6       0.20211    1.02846    0.34134   1.00
C6       0.18216    0.96927    0.34492   1.00
C6       0.16359    1.03005    0.35270   1.00
C6       0.15090    0.99241    0.35497   1.00
H3       0.22086    1.05300    0.33669   1.00
H3       0.18207    0.93803    0.34364   1.00
H3       0.14663    1.05575    0.35864   1.00
H3       0.12208    0.98287    0.36309   1.00
C4       0.02085    0.75015    0.25012   1.00
C4       -0.02085   0.74985    0.24988   1.00
C3a      0.04254    0.78573    0.24942   1.00
C3       -0.04232   0.75682    0.28430   1.00
C3       0.04232    0.71505    0.25120   1.00
C3a      -0.04254   0.74241    0.21508   1.00
C2       0.10512    0.74995    0.25007   1.00
C2       -0.10512   0.74995    0.25006   1.00
C3       0.08405    0.78505    0.24932   1.00
C3       -0.08363   0.75697    0.28432   1.00
C3       0.08363    0.71499    0.25105   1.00
C3       -0.08405   0.74265    0.21572   1.00
C5       0.02228    0.82494    0.24813   1.00
H1       -0.02691   0.76257    0.31129   1.00
H1       0.10021    0.81216    0.24858   1.00
H1       -0.09901   0.76267    0.31131   1.00
H1       0.09901    0.68742    0.25167   1.00
H1       -0.10021   0.73718    0.18916   1.00
C5       -0.02228   0.73470    0.17661   1.00
H1       0.02691    0.68746    0.25176   1.00
H2       -0.04256   0.74080    0.15209   1.00
H2       0.00269    0.75501    0.17284   1.00
H2       0.04256    0.84743    0.23659   1.00
H2       -0.00269   0.82397    0.22750   1.00
N1       -0.00857   0.69432    0.17434   1.00
C6       -0.03073   0.66227    0.17308   1.00
C6       0.02846    0.68251    0.17201   1.00
C6       -0.00759   0.62954    0.17044   1.00
C6       0.03005    0.64241    0.16975   1.00
H3       -0.06197   0.66248    0.17435   1.00
H3       0.05300    0.70183    0.17226   1.00
H3       -0.01713   0.59963    0.16913   1.00
H3       0.05575    0.62455    0.16785   1.00
N1       0.00857    0.83638    0.28692   1.00
C6       -0.02846   0.84134    0.29789   1.00
C6       0.03073    0.84492    0.31784   1.00
C6       -0.03005   0.85270    0.33641   1.00
C6       0.00759    0.85497    0.34910   1.00
H3       -0.05300   0.83669    0.27914   1.00
H3       0.06197    0.84364    0.31793   1.00
H3       -0.05575   0.85864    0.35337   1.00
H3       0.01713    0.86309    0.37792   1.00
C4       0.47915    0.75015    0.24988   1.00
C4       0.52085    0.74985    0.25012   1.00
C3a      0.45746    0.78573    0.25058   1.00
C3       0.54232    0.75682    0.21570   1.00
C3       0.45768    0.71505    0.24880   1.00
C3a      0.54254    0.74241    0.28492   1.00
C2       0.39488    0.74995    0.24993   1.00
C2       0.60512    0.74995    0.24994   1.00
C3       0.41595    0.78505    0.25068   1.00
C3       0.58363    0.75697    0.21568   1.00
C3       0.41637    0.71499    0.24895   1.00
C3       0.58405    0.74265    0.28428   1.00
C5       0.47772    0.82494    0.25187   1.00
H1       0.52691    0.76257    0.18871   1.00
H1       0.39979    0.81216    0.25142   1.00
H1       0.59901    0.76267    0.18869   1.00
H1       0.40099    0.68742    0.24833   1.00
H1       0.60021    0.73718    0.31084   1.00
C5       0.52228    0.73470    0.32339   1.00
H1       0.47309    0.68746    0.24824   1.00
H2       0.54256    0.74080    0.34791   1.00
H2       0.49731    0.75501    0.32716   1.00
H2       0.45744    0.84743    0.26341   1.00
H2       0.50269    0.82397    0.27250   1.00
N1       0.50857    0.69432    0.32566   1.00
C6       0.53073    0.66227    0.32692   1.00
C6       0.47154    0.68251    0.32799   1.00
C6       0.50759    0.62954    0.32956   1.00
C6       0.46995    0.64241    0.33025   1.00
H3       0.56197    0.66248    0.32565   1.00
H3       0.44700    0.70183    0.32774   1.00
H3       0.51713    0.59963    0.33087   1.00
H3       0.44425    0.62455    0.33215   1.00
N1       0.49143    0.83638    0.21308   1.00
C6       0.52846    0.84134    0.20211   1.00
C6       0.46927    0.84492    0.18216   1.00
C6       0.53005    0.85270    0.16359   1.00
C6       0.49241    0.85497    0.15090   1.00
H3       0.55300    0.83669    0.22086   1.00
H3       0.43803    0.84364    0.18207   1.00
H3       0.55575    0.85864    0.14663   1.00
H3       0.48287    0.86309    0.12208   1.00
C4       0.25012    0.52085    0.25015   1.00
C4       0.24988    0.47915    0.24985   1.00
C3a      0.24942    0.54254    0.28573   1.00
C3       0.28430    0.45768    0.25682   1.00
C3       0.25120    0.54232    0.21505   1.00
C3a      0.21508    0.45746    0.24241   1.00
C2       0.25007    0.60512    0.24995   1.00
C2       0.25006    0.39488    0.24995   1.00
C3       0.24932    0.58405    0.28505   1.00
C3       0.28432    0.41637    0.25697   1.00
C3       0.25105    0.58363    0.21499   1.00
C3       0.21572    0.41595    0.24265   1.00
C5       0.24813    0.52228    0.32494   1.00
H1       0.31129    0.47309    0.26257   1.00
H1       0.24858    0.60021    0.31216   1.00
H1       0.31131    0.40099    0.26267   1.00
H1       0.25167    0.59901    0.18742   1.00
H1       0.18916    0.39979    0.23718   1.00
C5       0.17661    0.47772    0.23470   1.00
H1       0.25176    0.52691    0.18746   1.00
H2       0.15209    0.45744    0.24080   1.00
H2       0.17284    0.50269    0.25501   1.00
H2       0.23659    0.54256    0.34743   1.00
H2       0.22750    0.49731    0.32397   1.00
N1       0.17434    0.49143    0.19432   1.00
C6       0.17308    0.46927    0.16227   1.00
C6       0.17201    0.52846    0.18251   1.00
C6       0.17044    0.49241    0.12954   1.00
C6       0.16975    0.53005    0.14241   1.00
H3       0.17435    0.43803    0.16248   1.00
H3       0.17226    0.55300    0.20183   1.00
H3       0.16913    0.48287    0.09963   1.00
H3       0.16785    0.55575    0.12455   1.00
N1       0.28692    0.50857    0.33638   1.00
C6       0.29789    0.47154    0.34134   1.00
C6       0.31784    0.53073    0.34492   1.00
C6       0.33641    0.46995    0.35270   1.00
C6       0.34910    0.50759    0.35497   1.00
H3       0.27914    0.44700    0.33669   1.00
H3       0.31793    0.56197    0.34364   1.00
H3       0.35337    0.44425    0.35864   1.00
H3       0.37792    0.51713    0.36309   1.00
C4       0.25015    0.75012    0.02085   1.00
C4       0.24985    0.74988    -0.02085   1.00
C3a      0.28573    0.74942    0.04254   1.00
C3       0.25682    0.78430    -0.04232   1.00
C3       0.21505    0.75120    0.04232   1.00
C3a      0.24241    0.71508    -0.04254   1.00
C2       0.24995    0.75007    0.10512   1.00
C2       0.24995    0.75006    -0.10512   1.00
C3       0.28505    0.74932    0.08405   1.00
C3       0.25697    0.78432    -0.08363   1.00
C3       0.21499    0.75105    0.08363   1.00
C3       0.24265    0.71572    -0.08405   1.00
C5       0.32494    0.74813    0.02228   1.00
H1       0.26257    0.81129    -0.02691   1.00
H1       0.31216    0.74858    0.10021   1.00
H1       0.26267    0.81131    -0.09901   1.00
H1       0.18742    0.75167    0.09901   1.00
H1       0.23718    0.68916    -0.10021   1.00
C5       0.23470    0.67661    -0.02228   1.00
H1       0.18746    0.75176    0.02691   1.00
H2       0.24080    0.65209    -0.04256   1.00
H2       0.25501    0.67284    0.00269   1.00
H2       0.34743    0.73659    0.04256   1.00
H2       0.32397    0.72750    -0.00269   1.00
N1       0.19432    0.67434    -0.00857   1.00
C6       0.16227    0.67308    -0.03073   1.00
C6       0.18251    0.67201    0.02846   1.00
C6       0.12954    0.67044    -0.00759   1.00
C6       0.14241    0.66975    0.03005   1.00
H3       0.16248    0.67435    -0.06197   1.00
H3       0.20183    0.67226    0.05300   1.00
H3       0.09963    0.66913    -0.01713   1.00
H3       0.12455    0.66785    0.05575   1.00
N1       0.33638    0.78692    0.00857   1.00
C6       0.34134    0.79789    -0.02846   1.00
C6       0.34492    0.81784    0.03073   1.00
C6       0.35270    0.83641    -0.03005   1.00
C6       0.35497    0.84910    0.00759   1.00
H3       0.33669    0.77914    -0.05300   1.00
H3       0.34364    0.81793    0.06197   1.00
H3       0.35864    0.85337    -0.05575   1.00
H3       0.36309    0.87792    0.01713   1.00
C4       0.75015    0.24988    0.47915   1.00
C4       0.74985    0.25012    0.52085   1.00
C3a      0.78573    0.25058    0.45746   1.00
C3       0.75682    0.21570    0.54232   1.00
C3       0.71505    0.24880    0.45768   1.00
C3a      0.74241    0.28492    0.54254   1.00
C2       0.74995    0.24993    0.39488   1.00
C2       0.74995    0.24994    0.60512   1.00
C3       0.78505    0.25068    0.41595   1.00
C3       0.75697    0.21568    0.58363   1.00
C3       0.71499    0.24895    0.41637   1.00
C3       0.74265    0.28428    0.58405   1.00
C5       0.82494    0.25187    0.47772   1.00
H1       0.76257    0.18871    0.52691   1.00
H1       0.81216    0.25142    0.39979   1.00
H1       0.76267    0.18869    0.59901   1.00
H1       0.68742    0.24833    0.40099   1.00
H1       0.73718    0.31084    0.60021   1.00
C5       0.73470    0.32339    0.52228   1.00
H1       0.68746    0.24824    0.47309   1.00
H2       0.74080    0.34791    0.54256   1.00
H2       0.75501    0.32716    0.49731   1.00
H2       0.84743    0.26341    0.45744   1.00
H2       0.82397    0.27250    0.50269   1.00
N1       0.69432    0.32566    0.50857   1.00
C6       0.66227    0.32692    0.53073   1.00
C6       0.68251    0.32799    0.47154   1.00
C6       0.62954    0.32956    0.50759   1.00
C6       0.64241    0.33025    0.46995   1.00
H3       0.66248    0.32565    0.56197   1.00
H3       0.70183    0.32774    0.44700   1.00
H3       0.59963    0.33087    0.51713   1.00
H3       0.62455    0.33215    0.44425   1.00
N1       0.83638    0.21308    0.49143   1.00
C6       0.84134    0.20211    0.52846   1.00
C6       0.84492    0.18216    0.46927   1.00
C6       0.85270    0.16359    0.53005   1.00
C6       0.85497    0.15090    0.49241   1.00
H3       0.83669    0.22086    0.55300   1.00
H3       0.84364    0.18207    0.43803   1.00
H3       0.85864    0.14663    0.55575   1.00
H3       0.86309    0.12208    0.48287   1.00
C4       0.74988    0.47915    0.25015   1.00
C4       0.75012    0.52085    0.24985   1.00
C3a      0.75058    0.45746    0.28573   1.00
C3       0.71570    0.54232    0.25682   1.00
C3       0.74880    0.45768    0.21505   1.00
C3a      0.78492    0.54254    0.24241   1.00
C2       0.74993    0.39488    0.24995   1.00
C2       0.74994    0.60512    0.24995   1.00
C3       0.75068    0.41595    0.28505   1.00
C3       0.71568    0.58363    0.25697   1.00
C3       0.74895    0.41637    0.21499   1.00
C3       0.78428    0.58405    0.24265   1.00
C5       0.75187    0.47772    0.32494   1.00
H1       0.68871    0.52691    0.26257   1.00
H1       0.75142    0.39979    0.31216   1.00
H1       0.68869    0.59901    0.26267   1.00
H1       0.74833    0.40099    0.18742   1.00
H1       0.81084    0.60021    0.23718   1.00
C5       0.82339    0.52228    0.23470   1.00
H1       0.74824    0.47309    0.18746   1.00
H2       0.84791    0.54256    0.24080   1.00
H2       0.82716    0.49731    0.25501   1.00
H2       0.76341    0.45744    0.34743   1.00
H2       0.77250    0.50269    0.32397   1.00
N1       0.82566    0.50857    0.19432   1.00
C6       0.82692    0.53073    0.16227   1.00
C6       0.82799    0.47154    0.18251   1.00
C6       0.82956    0.50759    0.12954   1.00
C6       0.83025    0.46995    0.14241   1.00
H3       0.82565    0.56197    0.16248   1.00
H3       0.82774    0.44700    0.20183   1.00
H3       0.83087    0.51713    0.09963   1.00
H3       0.83215    0.44425    0.12455   1.00
N1       0.71308    0.49143    0.33638   1.00
C6       0.70211    0.52846    0.34134   1.00
C6       0.68216    0.46927    0.34492   1.00
C6       0.66359    0.53005    0.35270   1.00
C6       0.65090    0.49241    0.35497   1.00
H3       0.72086    0.55300    0.33669   1.00
H3       0.68207    0.43803    0.34364   1.00
H3       0.64663    0.55575    0.35864   1.00
H3       0.62208    0.48287    0.36309   1.00
C4       0.52085    0.25015    0.25012   1.00
C4       0.47915    0.24985    0.24988   1.00
C3a      0.54254    0.28573    0.24942   1.00
C3       0.45768    0.25682    0.28430   1.00
C3       0.54232    0.21505    0.25120   1.00
C3a      0.45746    0.24241    0.21508   1.00
C2       0.60512    0.24995    0.25007   1.00
C2       0.39488    0.24995    0.25006   1.00
C3       0.58405    0.28505    0.24932   1.00
C3       0.41637    0.25697    0.28432   1.00
C3       0.58363    0.21499    0.25105   1.00
C3       0.41595    0.24265    0.21572   1.00
C5       0.52228    0.32494    0.24813   1.00
H1       0.47309    0.26257    0.31129   1.00
H1       0.60021    0.31216    0.24858   1.00
H1       0.40099    0.26267    0.31131   1.00
H1       0.59901    0.18742    0.25167   1.00
H1       0.39979    0.23718    0.18916   1.00
C5       0.47772    0.23470    0.17661   1.00
H1       0.52691    0.18746    0.25176   1.00
H2       0.45744    0.24080    0.15209   1.00
H2       0.50269    0.25501    0.17284   1.00
H2       0.54256    0.34743    0.23659   1.00
H2       0.49731    0.32397    0.22750   1.00
N1       0.49143    0.19432    0.17434   1.00
C6       0.46927    0.16227    0.17308   1.00
C6       0.52846    0.18251    0.17201   1.00
C6       0.49241    0.12954    0.17044   1.00
C6       0.53005    0.14241    0.16975   1.00
H3       0.43803    0.16248    0.17435   1.00
H3       0.55300    0.20183    0.17226   1.00
H3       0.48287    0.09963    0.16913   1.00
H3       0.55575    0.12455    0.16785   1.00
N1       0.50857    0.33638    0.28692   1.00
C6       0.47154    0.34134    0.29789   1.00
C6       0.53073    0.34492    0.31784   1.00
C6       0.46995    0.35270    0.33641   1.00
C6       0.50759    0.35497    0.34910   1.00
H3       0.44700    0.33669    0.27914   1.00
H3       0.56197    0.34364    0.31793   1.00
H3       0.44425    0.35864    0.35337   1.00
H3       0.51713    0.36309    0.37792   1.00
C4       0.97915    0.25015    0.24988   1.00
C4       1.02085    0.24985    0.25012   1.00
C3a      0.95746    0.28573    0.25058   1.00
C3       1.04232    0.25682    0.21570   1.00
C3       0.95768    0.21505    0.24880   1.00
C3a      1.04254    0.24241    0.28492   1.00
C2       0.89488    0.24995    0.24993   1.00
C2       1.10512    0.24995    0.24994   1.00
C3       0.91595    0.28505    0.25068   1.00
C3       1.08363    0.25697    0.21568   1.00
C3       0.91637    0.21499    0.24895   1.00
C3       1.08405    0.24265    0.28428   1.00
C5       0.97772    0.32494    0.25187   1.00
H1       1.02691    0.26257    0.18871   1.00
H1       0.89979    0.31216    0.25142   1.00
H1       1.09901    0.26267    0.18869   1.00
H1       0.90099    0.18742    0.24833   1.00
H1       1.10021    0.23718    0.31084   1.00
C5       1.02228    0.23470    0.32339   1.00
H1       0.97309    0.18746    0.24824   1.00
H2       1.04256    0.24080    0.34791   1.00
H2       0.99731    0.25501    0.32716   1.00
H2       0.95744    0.34743    0.26341   1.00
H2       1.00269    0.32397    0.27250   1.00
N1       1.00857    0.19432    0.32566   1.00
C6       1.03073    0.16227    0.32692   1.00
C6       0.97154    0.18251    0.32799   1.00
C6       1.00759    0.12954    0.32956   1.00
C6       0.96995    0.14241    0.33025   1.00
H3       1.06197    0.16248    0.32565   1.00
H3       0.94700    0.20183    0.32774   1.00
H3       1.01713    0.09963    0.33087   1.00
H3       0.94425    0.12455    0.33215   1.00
N1       0.99143    0.33638    0.21308   1.00
C6       1.02846    0.34134    0.20211   1.00
C6       0.96927    0.34492    0.18216   1.00
C6       1.03005    0.35270    0.16359   1.00
C6       0.99241    0.35497    0.15090   1.00
H3       1.05300    0.33669    0.22086   1.00
H3       0.93803    0.34364    0.18207   1.00
H3       1.05575    0.35864    0.14663   1.00
H3       0.98287    0.36309    0.12208   1.00
C4       0.75012    0.02085    0.25015   1.00
C4       0.74988    -0.02085   0.24985   1.00
C3a      0.74942    0.04254    0.28573   1.00
C3       0.78430    -0.04232   0.25682   1.00
C3       0.75120    0.04232    0.21505   1.00
C3a      0.71508    -0.04254   0.24241   1.00
C2       0.75007    0.10512    0.24995   1.00
C2       0.75006    -0.10512   0.24995   1.00
C3       0.74932    0.08405    0.28505   1.00
C3       0.78432    -0.08363   0.25697   1.00
C3       0.75105    0.08363    0.21499   1.00
C3       0.71572    -0.08405   0.24265   1.00
C5       0.74813    0.02228    0.32494   1.00
H1       0.81129    -0.02691   0.26257   1.00
H1       0.74858    0.10021    0.31216   1.00
H1       0.81131    -0.09901   0.26267   1.00
H1       0.75167    0.09901    0.18742   1.00
H1       0.68916    -0.10021   0.23718   1.00
C5       0.67661    -0.02228   0.23470   1.00
H1       0.75176    0.02691    0.18746   1.00
H2       0.65209    -0.04256   0.24080   1.00
H2       0.67284    0.00269    0.25501   1.00
H2       0.73659    0.04256    0.34743   1.00
H2       0.72750    -0.00269   0.32397   1.00
N1       0.67434    -0.00857   0.19432   1.00
C6       0.67308    -0.03073   0.16227   1.00
C6       0.67201    0.02846    0.18251   1.00
C6       0.67044    -0.00759   0.12954   1.00
C6       0.66975    0.03005    0.14241   1.00
H3       0.67435    -0.06197   0.16248   1.00
H3       0.67226    0.05300    0.20183   1.00
H3       0.66913    -0.01713   0.09963   1.00
H3       0.66785    0.05575    0.12455   1.00
N1       0.78692    0.00857    0.33638   1.00
C6       0.79789    -0.02846   0.34134   1.00
C6       0.81784    0.03073    0.34492   1.00
C6       0.83641    -0.03005   0.35270   1.00
C6       0.84910    0.00759    0.35497   1.00
H3       0.77914    -0.05300   0.33669   1.00
H3       0.81793    0.06197    0.34364   1.00
H3       0.85337    -0.05575   0.35864   1.00
H3       0.87792    0.01713    0.36309   1.00
C4       0.75015    0.25012    0.02085   1.00
C4       0.74985    0.24988    -0.02085   1.00
C3a      0.78573    0.24942    0.04254   1.00
C3       0.75682    0.28430    -0.04232   1.00
C3       0.71505    0.25120    0.04232   1.00
C3a      0.74241    0.21508    -0.04254   1.00
C2       0.74995    0.25007    0.10512   1.00
C2       0.74995    0.25006    -0.10512   1.00
C3       0.78505    0.24932    0.08405   1.00
C3       0.75697    0.28432    -0.08363   1.00
C3       0.71499    0.25105    0.08363   1.00
C3       0.74265    0.21572    -0.08405   1.00
C5       0.82494    0.24813    0.02228   1.00
H1       0.76257    0.31129    -0.02691   1.00
H1       0.81216    0.24858    0.10021   1.00
H1       0.76267    0.31131    -0.09901   1.00
H1       0.68742    0.25167    0.09901   1.00
H1       0.73718    0.18916    -0.10021   1.00
C5       0.73470    0.17661    -0.02228   1.00
H1       0.68746    0.25176    0.02691   1.00
H2       0.74080    0.15209    -0.04256   1.00
H2       0.75501    0.17284    0.00269   1.00
H2       0.84743    0.23659    0.04256   1.00
H2       0.82397    0.22750    -0.00269   1.00
N1       0.69432    0.17434    -0.00857   1.00
C6       0.66227    0.17308    -0.03073   1.00
C6       0.68251    0.17201    0.02846   1.00
C6       0.62954    0.17044    -0.00759   1.00
C6       0.64241    0.16975    0.03005   1.00
H3       0.66248    0.17435    -0.06197   1.00
H3       0.70183    0.17226    0.05300   1.00
H3       0.59963    0.16913    -0.01713   1.00
H3       0.62455    0.16785    0.05575   1.00
N1       0.83638    0.28692    0.00857   1.00
C6       0.84134    0.29789    -0.02846   1.00
C6       0.84492    0.31784    0.03073   1.00
C6       0.85270    0.33641    -0.03005   1.00
C6       0.85497    0.34910    0.00759   1.00
H3       0.83669    0.27914    -0.05300   1.00
H3       0.84364    0.31793    0.06197   1.00
H3       0.85864    0.35337    -0.05575   1.00
H3       0.86309    0.37792    0.01713   1.00
C4       1.00015    0.99988    1.22915   1.00
C4       0.99985    1.00012    1.27085   1.00
C3a      1.03573    1.00058    1.20746   1.00
C3       1.00682    0.96570    1.29232   1.00
C3       0.96505    0.99880    1.20768   1.00
C3a      0.99241    1.03492    1.29254   1.00
C2       0.99995    0.99993    1.14488   1.00
C2       0.99995    0.99994    1.35512   1.00
C3       1.03505    1.00068    1.16595   1.00
C3       1.00697    0.96568    1.33363   1.00
C3       0.96499    0.99895    1.16637   1.00
C3       0.99265    1.03428    1.33405   1.00
C5       1.07494    1.00187    1.22772   1.00
H1       1.01257    0.93871    1.27691   1.00
H1       1.06216    1.00142    1.14979   1.00
H1       1.01267    0.93869    1.34901   1.00
H1       0.93742    0.99833    1.15099   1.00
H1       0.98718    1.06084    1.35021   1.00
C5       0.98470    1.07339    1.27228   1.00
H1       0.93746    0.99824    1.22309   1.00
H2       0.99080    1.09791    1.29256   1.00
H2       1.00501    1.07716    1.24731   1.00
H2       1.09743    1.01341    1.20744   1.00
H2       1.07397    1.02250    1.25269   1.00
N1       0.94432    1.07566    1.25857   1.00
C6       0.91227    1.07692    1.28073   1.00
C6       0.93251    1.07799    1.22154   1.00
C6       0.87954    1.07956    1.25759   1.00
C6       0.89241    1.08025    1.21995   1.00
H3       0.91248    1.07565    1.31197   1.00
H3       0.95183    1.07774    1.19700   1.00
H3       0.84963    1.08087    1.26713   1.00
H3       0.87455    1.08215    1.19425   1.00
N1       1.08638    0.96308    1.24143   1.00
C6       1.09134    0.95211    1.27846   1.00
C6       1.09492    0.93216    1.21927   1.00
C6       1.10270    0.91359    1.28005   1.00
C6       1.10497    0.90090    1.24241   1.00
H3       1.08669    0.97086    1.30300   1.00
H3       1.09364    0.93207    1.18803   1.00
H3       1.10864    0.89663    1.30575   1.00
H3       1.11309    0.87208    1.23287   1.00
C4       0.99988    1.22915    1.00015   1.00
C4       1.00012    1.27085    0.99985   1.00
C3a      1.00058    1.20746    1.03573   1.00
C3       0.96570    1.29232    1.00682   1.00
C3       0.99880    1.20768    0.96505   1.00
C3a      1.03492    1.29254    0.99241   1.00
C2       0.99993    1.14488    0.99995   1.00
C2       0.99994    1.35512    0.99995   1.00
C3       1.00068    1.16595    1.03505   1.00
C3       0.96568    1.33363    1.00697   1.00
C3       0.99895    1.16637    0.96499   1.00
C3       1.03428    1.33405    0.99265   1.00
C5       1.00187    1.22772    1.07494   1.00
H1       0.93871    1.27691    1.01257   1.00
H1       1.00142    1.14979    1.06216   1.00
H1       0.93869    1.34901    1.01267   1.00
H1       0.99833    1.15099    0.93742   1.00
H1       1.06084    1.35021    0.98718   1.00
C5       1.07339    1.27228    0.98470   1.00
H1       0.99824    1.22309    0.93746   1.00
H2       1.09791    1.29256    0.99080   1.00
H2       1.07716    1.24731    1.00501   1.00
H2       1.01341    1.20744    1.09743   1.00
H2       1.02250    1.25269    1.07397   1.00
N1       1.07566    1.25857    0.94432   1.00
C6       1.07692    1.28073    0.91227   1.00
C6       1.07799    1.22154    0.93251   1.00
C6       1.07956    1.25759    0.87954   1.00
C6       1.08025    1.21995    0.89241   1.00
H3       1.07565    1.31197    0.91248   1.00
H3       1.07774    1.19700    0.95183   1.00
H3       1.08087    1.26713    0.84963   1.00
H3       1.08215    1.19425    0.87455   1.00
N1       0.96308    1.24143    1.08638   1.00
C6       0.95211    1.27846    1.09134   1.00
C6       0.93216    1.21927    1.09492   1.00
C6       0.91359    1.28005    1.10270   1.00
C6       0.90090    1.24241    1.10497   1.00
H3       0.97086    1.30300    1.08669   1.00
H3       0.93207    1.18803    1.09364   1.00
H3       0.89663    1.30575    1.10864   1.00
H3       0.87208    1.23287    1.11309   1.00
C4       0.77085    1.00015    1.00012   1.00
C4       0.72915    0.99985    0.99988   1.00
C3a      0.79254    1.03573    0.99942   1.00
C3       0.70768    1.00682    1.03430   1.00
C3       0.79232    0.96505    1.00120   1.00
C3a      0.70746    0.99241    0.96508   1.00
C2       0.85512    0.99995    1.00007   1.00
C2       0.64488    0.99995    1.00006   1.00
C3       0.83405    1.03505    0.99932   1.00
C3       0.66637    1.00697    1.03432   1.00
C3       0.83363    0.96499    1.00105   1.00
C3       0.66595    0.99265    0.96572   1.00
C5       0.77228    1.07494    0.99813   1.00
H1       0.72309    1.01257    1.06129   1.00
H1       0.85021    1.06216    0.99858   1.00
H1       0.65099    1.01267    1.06131   1.00
H1       0.84901    0.93742    1.00167   1.00
H1       0.64979    0.98718    0.93916   1.00
C5       0.72772    0.98470    0.92661   1.00
H1       0.77691    0.93746    1.00176   1.00
H2       0.70744    0.99080    0.90209   1.00
H2       0.75269    1.00501    0.92284   1.00
H2       0.79256    1.09743    0.98659   1.00
H2       0.74731    1.07397    0.97750   1.00
N1       0.74143    0.94432    0.92434   1.00
C6       0.71927    0.91227    0.92308   1.00
C6       0.77846    0.93251    0.92201   1.00
C6       0.74241    0.87954    0.92044   1.00
C6       0.78005    0.89241    0.91975   1.00
H3       0.68803    0.91248    0.92435   1.00
H3       0.80300    0.95183    0.92226   1.00
H3       0.73287    0.84963    0.91913   1.00
H3       0.80575    0.87455    0.91785   1.00
N1       0.75857    1.08638    1.03692   1.00
C6       0.72154    1.09134    1.04789   1.00
C6       0.78073    1.09492    1.06784   1.00
C6       0.71995    1.10270    1.08641   1.00
C6       0.75759    1.10497    1.09910   1.00
H3       0.69700    1.08669    1.02914   1.00
H3       0.81197    1.09364    1.06793   1.00
H3       0.69425    1.10864    1.10337   1.00
H3       0.76713    1.11309    1.12792   1.00
C4       1.22915    1.00015    0.99988   1.00
C4       1.27085    0.99985    1.00012   1.00
C3a      1.20746    1.03573    1.00058   1.00
C3       1.29232    1.00682    0.96570   1.00
C3       1.20768    0.96505    0.99880   1.00
C3a      1.29254    0.99241    1.03492   1.00
C2       1.14488    0.99995    0.99993   1.00
C2       1.35512    0.99995    0.99994   1.00
C3       1.16595    1.03505    1.00068   1.00
C3       1.33363    1.00697    0.96568   1.00
C3       1.16637    0.96499    0.99895   1.00
C3       1.33405    0.99265    1.03428   1.00
C5       1.22772    1.07494    1.00187   1.00
H1       1.27691    1.01257    0.93871   1.00
H1       1.14979    1.06216    1.00142   1.00
H1       1.34901    1.01267    0.93869   1.00
H1       1.15099    0.93742    0.99833   1.00
H1       1.35021    0.98718    1.06084   1.00
C5       1.27228    0.98470    1.07339   1.00
H1       1.22309    0.93746    0.99824   1.00
H2       1.29256    0.99080    1.09791   1.00
H2       1.24731    1.00501    1.07716   1.00
H2       1.20744    1.09743    1.01341   1.00
H2       1.25269    1.07397    1.02250   1.00
N1       1.25857    0.94432    1.07566   1.00
C6       1.28073    0.91227    1.07692   1.00
C6       1.22154    0.93251    1.07799   1.00
C6       1.25759    0.87954    1.07956   1.00
C6       1.21995    0.89241    1.08025   1.00
H3       1.31197    0.91248    1.07565   1.00
H3       1.19700    0.95183    1.07774   1.00
H3       1.26713    0.84963    1.08087   1.00
H3       1.19425    0.87455    1.08215   1.00
N1       1.24143    1.08638    0.96308   1.00
C6       1.27846    1.09134    0.95211   1.00
C6       1.21927    1.09492    0.93216   1.00
C6       1.28005    1.10270    0.91359   1.00
C6       1.24241    1.10497    0.90090   1.00
H3       1.30300    1.08669    0.97086   1.00
H3       1.18803    1.09364    0.93207   1.00
H3       1.30575    1.10864    0.89663   1.00
H3       1.23287    1.11309    0.87208   1.00
C4       1.00012    0.77085    1.00015   1.00
C4       0.99988    0.72915    0.99985   1.00
C3a      0.99942    0.79254    1.03573   1.00
C3       1.03430    0.70768    1.00682   1.00
C3       1.00120    0.79232    0.96505   1.00
C3a      0.96508    0.70746    0.99241   1.00
C2       1.00007    0.85512    0.99995   1.00
C2       1.00006    0.64488    0.99995   1.00
C3       0.99932    0.83405    1.03505   1.00
C3       1.03432    0.66637    1.00697   1.00
C3       1.00105    0.83363    0.96499   1.00
C3       0.96572    0.66595    0.99265   1.00
C5       0.99813    0.77228    1.07494   1.00
H1       1.06129    0.72309    1.01257   1.00
H1       0.99858    0.85021    1.06216   1.00
H1       1.06131    0.65099    1.01267   1.00
H1       1.00167    0.84901    0.93742   1.00
H1       0.93916    0.64979    0.98718   1.00
C5       0.92661    0.72772    0.98470   1.00
H1       1.00176    0.77691    0.93746   1.00
H2       0.90209    0.70744    0.99080   1.00
H2       0.92284    0.75269    1.00501   1.00
H2       0.98659    0.79256    1.09743   1.00
H2       0.97750    0.74731    1.07397   1.00
N1       0.92434    0.74143    0.94432   1.00
C6       0.92308    0.71927    0.91227   1.00
C6       0.92201    0.77846    0.93251   1.00
C6       0.92044    0.74241    0.87954   1.00
C6       0.91975    0.78005    0.89241   1.00
H3       0.92435    0.68803    0.91248   1.00
H3       0.92226    0.80300    0.95183   1.00
H3       0.91913    0.73287    0.84963   1.00
H3       0.91785    0.80575    0.87455   1.00
N1       1.03692    0.75857    1.08638   1.00
C6       1.04789    0.72154    1.09134   1.00
C6       1.06784    0.78073    1.09492   1.00
C6       1.08641    0.71995    1.10270   1.00
C6       1.09910    0.75759    1.10497   1.00
H3       1.02914    0.69700    1.08669   1.00
H3       1.06793    0.81197    1.09364   1.00
H3       1.10337    0.69425    1.10864   1.00
H3       1.12792    0.76713    1.11309   1.00
C4       1.00015    1.00012    0.77085   1.00
C4       0.99985    0.99988    0.72915   1.00
C3a      1.03573    0.99942    0.79254   1.00
C3       1.00682    1.03430    0.70768   1.00
C3       0.96505    1.00120    0.79232   1.00
C3a      0.99241    0.96508    0.70746   1.00
C2       0.99995    1.00007    0.85512   1.00
C2       0.99995    1.00006    0.64488   1.00
C3       1.03505    0.99932    0.83405   1.00
C3       1.00697    1.03432    0.66637   1.00
C3       0.96499    1.00105    0.83363   1.00
C3       0.99265    0.96572    0.66595   1.00
C5       1.07494    0.99813    0.77228   1.00
H1       1.01257    1.06129    0.72309   1.00
H1       1.06216    0.99858    0.85021   1.00
H1       1.01267    1.06131    0.65099   1.00
H1       0.93742    1.00167    0.84901   1.00
H1       0.98718    0.93916    0.64979   1.00
C5       0.98470    0.92661    0.72772   1.00
H1       0.93746    1.00176    0.77691   1.00
H2       0.99080    0.90209    0.70744   1.00
H2       1.00501    0.92284    0.75269   1.00
H2       1.09743    0.98659    0.79256   1.00
H2       1.07397    0.97750    0.74731   1.00
N1       0.94432    0.92434    0.74143   1.00
C6       0.91227    0.92308    0.71927   1.00
C6       0.93251    0.92201    0.77846   1.00
C6       0.87954    0.92044    0.74241   1.00
C6       0.89241    0.91975    0.78005   1.00
H3       0.91248    0.92435    0.68803   1.00
H3       0.95183    0.92226    0.80300   1.00
H3       0.84963    0.91913    0.73287   1.00
H3       0.87455    0.91785    0.80575   1.00
N1       1.08638    1.03692    0.75857   1.00
C6       1.09134    1.04789    0.72154   1.00
C6       1.09492    1.06784    0.78073   1.00
C6       1.10270    1.08641    0.71995   1.00
C6       1.10497    1.09910    0.75759   1.00
H3       1.08669    1.02914    0.69700   1.00
H3       1.09364    1.06793    0.81197   1.00
H3       1.10864    1.10337    0.69425   1.00
H3       1.11309    1.12792    0.76713   1.00
C4       0.50015    0.49988    1.22915   1.00
C4       0.49985    0.50012    1.27085   1.00
C3a      0.53573    0.50058    1.20746   1.00
C3       0.50682    0.46570    1.29232   1.00
C3       0.46505    0.49880    1.20768   1.00
C3a      0.49241    0.53492    1.29254   1.00
C2       0.49995    0.49993    1.14488   1.00
C2       0.49995    0.49994    1.35512   1.00
C3       0.53505    0.50068    1.16595   1.00
C3       0.50697    0.46568    1.33363   1.00
C3       0.46499    0.49895    1.16637   1.00
C3       0.49265    0.53428    1.33405   1.00
C5       0.57494    0.50187    1.22772   1.00
H1       0.51257    0.43871    1.27691   1.00
H1       0.56216    0.50142    1.14979   1.00
H1       0.51267    0.43869    1.34901   1.00
H1       0.43742    0.49833    1.15099   1.00
H1       0.48718    0.56084    1.35021   1.00
C5       0.48470    0.57339    1.27228   1.00
H1       0.43746    0.49824    1.22309   1.00
H2       0.49080    0.59791    1.29256   1.00
H2       0.50501    0.57716    1.24731   1.00
H2       0.59743    0.51341    1.20744   1.00
H2       0.57397    0.52250    1.25269   1.00
N1       0.44432    0.57566    1.25857   1.00
C6       0.41227    0.57692    1.28073   1.00
C6       0.43251    0.57799    1.22154   1.00
C6       0.37954    0.57956    1.25759   1.00
C6       0.39241    0.58025    1.21995   1.00
H3       0.41248    0.57565    1.31197   1.00
H3       0.45183    0.57774    1.19700   1.00
H3       0.34963    0.58087    1.26713   1.00
H3       0.37455    0.58215    1.19425   1.00
N1       0.58638    0.46308    1.24143   1.00
C6       0.59134    0.45211    1.27846   1.00
C6       0.59492    0.43216    1.21927   1.00
C6       0.60270    0.41359    1.28005   1.00
C6       0.60497    0.40090    1.24241   1.00
H3       0.58669    0.47086    1.30300   1.00
H3       0.59364    0.43207    1.18803   1.00
H3       0.60864    0.39663    1.30575   1.00
H3       0.61309    0.37208    1.23287   1.00
C4       0.49988    0.72915    1.00015   1.00
C4       0.50012    0.77085    0.99985   1.00
C3a      0.50058    0.70746    1.03573   1.00
C3       0.46570    0.79232    1.00682   1.00
C3       0.49880    0.70768    0.96505   1.00
C3a      0.53492    0.79254    0.99241   1.00
C2       0.49993    0.64488    0.99995   1.00
C2       0.49994    0.85512    0.99995   1.00
C3       0.50068    0.66595    1.03505   1.00
C3       0.46568    0.83363    1.00697   1.00
C3       0.49895    0.66637    0.96499   1.00
C3       0.53428    0.83405    0.99265   1.00
C5       0.50187    0.72772    1.07494   1.00
H1       0.43871    0.77691    1.01257   1.00
H1       0.50142    0.64979    1.06216   1.00
H1       0.43869    0.84901    1.01267   1.00
H1       0.49833    0.65099    0.93742   1.00
H1       0.56084    0.85021    0.98718   1.00
C5       0.57339    0.77228    0.98470   1.00
H1       0.49824    0.72309    0.93746   1.00
H2       0.59791    0.79256    0.99080   1.00
H2       0.57716    0.74731    1.00501   1.00
H2       0.51341    0.70744    1.09743   1.00
H2       0.52250    0.75269    1.07397   1.00
N1       0.57566    0.75857    0.94432   1.00
C6       0.57692    0.78073    0.91227   1.00
C6       0.57799    0.72154    0.93251   1.00
C6       0.57956    0.75759    0.87954   1.00
C6       0.58025    0.71995    0.89241   1.00
H3       0.57565    0.81197    0.91248   1.00
H3       0.57774    0.69700    0.95183   1.00
H3       0.58087    0.76713    0.84963   1.00
H3       0.58215    0.69425    0.87455   1.00
N1       0.46308    0.74143    1.08638   1.00
C6       0.45211    0.77846    1.09134   1.00
C6       0.43216    0.71927    1.09492   1.00
C6       0.41359    0.78005    1.10270   1.00
C6       0.40090    0.74241    1.10497   1.00
H3       0.47086    0.80300    1.08669   1.00
H3       0.43207    0.68803    1.09364   1.00
H3       0.39663    0.80575    1.10864   1.00
H3       0.37208    0.73287    1.11309   1.00
C4       0.27085    0.50015    1.00012   1.00
C4       0.22915    0.49985    0.99988   1.00
C3a      0.29254    0.53573    0.99942   1.00
C3       0.20768    0.50682    1.03430   1.00
C3       0.29232    0.46505    1.00120   1.00
C3a      0.20746    0.49241    0.96508   1.00
C2       0.35512    0.49995    1.00007   1.00
C2       0.14488    0.49995    1.00006   1.00
C3       0.33405    0.53505    0.99932   1.00
C3       0.16637    0.50697    1.03432   1.00
C3       0.33363    0.46499    1.00105   1.00
C3       0.16595    0.49265    0.96572   1.00
C5       0.27228    0.57494    0.99813   1.00
H1       0.22309    0.51257    1.06129   1.00
H1       0.35021    0.56216    0.99858   1.00
H1       0.15099    0.51267    1.06131   1.00
H1       0.34901    0.43742    1.00167   1.00
H1       0.14979    0.48718    0.93916   1.00
C5       0.22772    0.48470    0.92661   1.00
H1       0.27691    0.43746    1.00176   1.00
H2       0.20744    0.49080    0.90209   1.00
H2       0.25269    0.50501    0.92284   1.00
H2       0.29256    0.59743    0.98659   1.00
H2       0.24731    0.57397    0.97750   1.00
N1       0.24143    0.44432    0.92434   1.00
C6       0.21927    0.41227    0.92308   1.00
C6       0.27846    0.43251    0.92201   1.00
C6       0.24241    0.37954    0.92044   1.00
C6       0.28005    0.39241    0.91975   1.00
H3       0.18803    0.41248    0.92435   1.00
H3       0.30300    0.45183    0.92226   1.00
H3       0.23287    0.34963    0.91913   1.00
H3       0.30575    0.37455    0.91785   1.00
N1       0.25857    0.58638    1.03692   1.00
C6       0.22154    0.59134    1.04789   1.00
C6       0.28073    0.59492    1.06784   1.00
C6       0.21995    0.60270    1.08641   1.00
C6       0.25759    0.60497    1.09910   1.00
H3       0.19700    0.58669    1.02914   1.00
H3       0.31197    0.59364    1.06793   1.00
H3       0.19425    0.60864    1.10337   1.00
H3       0.26713    0.61309    1.12792   1.00
C4       0.72915    0.50015    0.99988   1.00
C4       0.77085    0.49985    1.00012   1.00
C3a      0.70746    0.53573    1.00058   1.00
C3       0.79232    0.50682    0.96570   1.00
C3       0.70768    0.46505    0.99880   1.00
C3a      0.79254    0.49241    1.03492   1.00
C2       0.64488    0.49995    0.99993   1.00
C2       0.85512    0.49995    0.99994   1.00
C3       0.66595    0.53505    1.00068   1.00
C3       0.83363    0.50697    0.96568   1.00
C3       0.66637    0.46499    0.99895   1.00
C3       0.83405    0.49265    1.03428   1.00
C5       0.72772    0.57494    1.00187   1.00
H1       0.77691    0.51257    0.93871   1.00
H1       0.64979    0.56216    1.00142   1.00
H1       0.84901    0.51267    0.93869   1.00
H1       0.65099    0.43742    0.99833   1.00
H1       0.85021    0.48718    1.06084   1.00
C5       0.77228    0.48470    1.07339   1.00
H1       0.72309    0.43746    0.99824   1.00
H2       0.79256    0.49080    1.09791   1.00
H2       0.74731    0.50501    1.07716   1.00
H2       0.70744    0.59743    1.01341   1.00
H2       0.75269    0.57397    1.02250   1.00
N1       0.75857    0.44432    1.07566   1.00
C6       0.78073    0.41227    1.07692   1.00
C6       0.72154    0.43251    1.07799   1.00
C6       0.75759    0.37954    1.07956   1.00
C6       0.71995    0.39241    1.08025   1.00
H3       0.81197    0.41248    1.07565   1.00
H3       0.69700    0.45183    1.07774   1.00
H3       0.76713    0.34963    1.08087   1.00
H3       0.69425    0.37455    1.08215   1.00
N1       0.74143    0.58638    0.96308   1.00
C6       0.77846    0.59134    0.95211   1.00
C6       0.71927    0.59492    0.93216   1.00
C6       0.78005    0.60270    0.91359   1.00
C6       0.74241    0.60497    0.90090   1.00
H3       0.80300    0.58669    0.97086   1.00
H3       0.68803    0.59364    0.93207   1.00
H3       0.80575    0.60864    0.89663   1.00
H3       0.73287    0.61309    0.87208   1.00
C4       0.50012    0.27085    1.00015   1.00
C4       0.49988    0.22915    0.99985   1.00
C3a      0.49942    0.29254    1.03573   1.00
C3       0.53430    0.20768    1.00682   1.00
C3       0.50120    0.29232    0.96505   1.00
C3a      0.46508    0.20746    0.99241   1.00
C2       0.50007    0.35512    0.99995   1.00
C2       0.50006    0.14488    0.99995   1.00
C3       0.49932    0.33405    1.03505   1.00
C3       0.53432    0.16637    1.00697   1.00
C3       0.50105    0.33363    0.96499   1.00
C3       0.46572    0.16595    0.99265   1.00
C5       0.49813    0.27228    1.07494   1.00
H1       0.56129    0.22309    1.01257   1.00
H1       0.49858    0.35021    1.06216   1.00
H1       0.56131    0.15099    1.01267   1.00
H1       0.50167    0.34901    0.93742   1.00
H1       0.43916    0.14979    0.98718   1.00
C5       0.42661    0.22772    0.98470   1.00
H1       0.50176    0.27691    0.93746   1.00
H2       0.40209    0.20744    0.99080   1.00
H2       0.42284    0.25269    1.00501   1.00
H2       0.48659    0.29256    1.09743   1.00
H2       0.47750    0.24731    1.07397   1.00
N1       0.42434    0.24143    0.94432   1.00
C6       0.42308    0.21927    0.91227   1.00
C6       0.42201    0.27846    0.93251   1.00
C6       0.42044    0.24241    0.87954   1.00
C6       0.41975    0.28005    0.89241   1.00
H3       0.42435    0.18803    0.91248   1.00
H3       0.42226    0.30300    0.95183   1.00
H3       0.41913    0.23287    0.84963   1.00
H3       0.41785    0.30575    0.87455   1.00
N1       0.53692    0.25857    1.08638   1.00
C6       0.54789    0.22154    1.09134   1.00
C6       0.56784    0.28073    1.09492   1.00
C6       0.58641    0.21995    1.10270   1.00
C6       0.59910    0.25759    1.10497   1.00
H3       0.52914    0.19700    1.08669   1.00
H3       0.56793    0.31197    1.09364   1.00
H3       0.60337    0.19425    1.10864   1.00
H3       0.62792    0.26713    1.11309   1.00
C4       0.50015    0.50012    0.77085   1.00
C4       0.49985    0.49988    0.72915   1.00
C3a      0.53573    0.49942    0.79254   1.00
C3       0.50682    0.53430    0.70768   1.00
C3       0.46505    0.50120    0.79232   1.00
C3a      0.49241    0.46508    0.70746   1.00
C2       0.49995    0.50007    0.85512   1.00
C2       0.49995    0.50006    0.64488   1.00
C3       0.53505    0.49932    0.83405   1.00
C3       0.50697    0.53432    0.66637   1.00
C3       0.46499    0.50105    0.83363   1.00
C3       0.49265    0.46572    0.66595   1.00
C5       0.57494    0.49813    0.77228   1.00
H1       0.51257    0.56129    0.72309   1.00
H1       0.56216    0.49858    0.85021   1.00
H1       0.51267    0.56131    0.65099   1.00
H1       0.43742    0.50167    0.84901   1.00
H1       0.48718    0.43916    0.64979   1.00
C5       0.48470    0.42661    0.72772   1.00
H1       0.43746    0.50176    0.77691   1.00
H2       0.49080    0.40209    0.70744   1.00
H2       0.50501    0.42284    0.75269   1.00
H2       0.59743    0.48659    0.79256   1.00
H2       0.57397    0.47750    0.74731   1.00
N1       0.44432    0.42434    0.74143   1.00
C6       0.41227    0.42308    0.71927   1.00
C6       0.43251    0.42201    0.77846   1.00
C6       0.37954    0.42044    0.74241   1.00
C6       0.39241    0.41975    0.78005   1.00
H3       0.41248    0.42435    0.68803   1.00
H3       0.45183    0.42226    0.80300   1.00
H3       0.34963    0.41913    0.73287   1.00
H3       0.37455    0.41785    0.80575   1.00
N1       0.58638    0.53692    0.75857   1.00
C6       0.59134    0.54789    0.72154   1.00
C6       0.59492    0.56784    0.78073   1.00
C6       0.60270    0.58641    0.71995   1.00
C6       0.60497    0.59910    0.75759   1.00
H3       0.58669    0.52914    0.69700   1.00
H3       0.59364    0.56793    0.81197   1.00
H3       0.60864    0.60337    0.69425   1.00
H3       0.61309    0.62792    0.76713   1.00
C4       0.50015    0.99988    0.72915   1.00
C4       0.49985    1.00012    0.77085   1.00
C3a      0.53573    1.00058    0.70746   1.00
C3       0.50682    0.96570    0.79232   1.00
C3       0.46505    0.99880    0.70768   1.00
C3a      0.49241    1.03492    0.79254   1.00
C2       0.49995    0.99993    0.64488   1.00
C2       0.49995    0.99994    0.85512   1.00
C3       0.53505    1.00068    0.66595   1.00
C3       0.50697    0.96568    0.83363   1.00
C3       0.46499    0.99895    0.66637   1.00
C3       0.49265    1.03428    0.83405   1.00
C5       0.57494    1.00187    0.72772   1.00
H1       0.51257    0.93871    0.77691   1.00
H1       0.56216    1.00142    0.64979   1.00
H1       0.51267    0.93869    0.84901   1.00
H1       0.43742    0.99833    0.65099   1.00
H1       0.48718    1.06084    0.85021   1.00
C5       0.48470    1.07339    0.77228   1.00
H1       0.43746    0.99824    0.72309   1.00
H2       0.49080    1.09791    0.79256   1.00
H2       0.50501    1.07716    0.74731   1.00
H2       0.59743    1.01341    0.70744   1.00
H2       0.57397    1.02250    0.75269   1.00
N1       0.44432    1.07566    0.75857   1.00
C6       0.41227    1.07692    0.78073   1.00
C6       0.43251    1.07799    0.72154   1.00
C6       0.37954    1.07956    0.75759   1.00
C6       0.39241    1.08025    0.71995   1.00
H3       0.41248    1.07565    0.81197   1.00
H3       0.45183    1.07774    0.69700   1.00
H3       0.34963    1.08087    0.76713   1.00
H3       0.37455    1.08215    0.69425   1.00
N1       0.58638    0.96308    0.74143   1.00
C6       0.59134    0.95211    0.77846   1.00
C6       0.59492    0.93216    0.71927   1.00
C6       0.60270    0.91359    0.78005   1.00
C6       0.60497    0.90090    0.74241   1.00
H3       0.58669    0.97086    0.80300   1.00
H3       0.59364    0.93207    0.68803   1.00
H3       0.60864    0.89663    0.80575   1.00
H3       0.61309    0.87208    0.73287   1.00
C4       0.49988    1.22915    0.50015   1.00
C4       0.50012    1.27085    0.49985   1.00
C3a      0.50058    1.20746    0.53573   1.00
C3       0.46570    1.29232    0.50682   1.00
C3       0.49880    1.20768    0.46505   1.00
C3a      0.53492    1.29254    0.49241   1.00
C2       0.49993    1.14488    0.49995   1.00
C2       0.49994    1.35512    0.49995   1.00
C3       0.50068    1.16595    0.53505   1.00
C3       0.46568    1.33363    0.50697   1.00
C3       0.49895    1.16637    0.46499   1.00
C3       0.53428    1.33405    0.49265   1.00
C5       0.50187    1.22772    0.57494   1.00
H1       0.43871    1.27691    0.51257   1.00
H1       0.50142    1.14979    0.56216   1.00
H1       0.43869    1.34901    0.51267   1.00
H1       0.49833    1.15099    0.43742   1.00
H1       0.56084    1.35021    0.48718   1.00
C5       0.57339    1.27228    0.48470   1.00
H1       0.49824    1.22309    0.43746   1.00
H2       0.59791    1.29256    0.49080   1.00
H2       0.57716    1.24731    0.50501   1.00
H2       0.51341    1.20744    0.59743   1.00
H2       0.52250    1.25269    0.57397   1.00
N1       0.57566    1.25857    0.44432   1.00
C6       0.57692    1.28073    0.41227   1.00
C6       0.57799    1.22154    0.43251   1.00
C6       0.57956    1.25759    0.37954   1.00
C6       0.58025    1.21995    0.39241   1.00
H3       0.57565    1.31197    0.41248   1.00
H3       0.57774    1.19700    0.45183   1.00
H3       0.58087    1.26713    0.34963   1.00
H3       0.58215    1.19425    0.37455   1.00
N1       0.46308    1.24143    0.58638   1.00
C6       0.45211    1.27846    0.59134   1.00
C6       0.43216    1.21927    0.59492   1.00
C6       0.41359    1.28005    0.60270   1.00
C6       0.40090    1.24241    0.60497   1.00
H3       0.47086    1.30300    0.58669   1.00
H3       0.43207    1.18803    0.59364   1.00
H3       0.39663    1.30575    0.60864   1.00
H3       0.37208    1.23287    0.61309   1.00
C4       0.27085    1.00015    0.50012   1.00
C4       0.22915    0.99985    0.49988   1.00
C3a      0.29254    1.03573    0.49942   1.00
C3       0.20768    1.00682    0.53430   1.00
C3       0.29232    0.96505    0.50120   1.00
C3a      0.20746    0.99241    0.46508   1.00
C2       0.35512    0.99995    0.50007   1.00
C2       0.14488    0.99995    0.50006   1.00
C3       0.33405    1.03505    0.49932   1.00
C3       0.16637    1.00697    0.53432   1.00
C3       0.33363    0.96499    0.50105   1.00
C3       0.16595    0.99265    0.46572   1.00
C5       0.27228    1.07494    0.49813   1.00
H1       0.22309    1.01257    0.56129   1.00
H1       0.35021    1.06216    0.49858   1.00
H1       0.15099    1.01267    0.56131   1.00
H1       0.34901    0.93742    0.50167   1.00
H1       0.14979    0.98718    0.43916   1.00
C5       0.22772    0.98470    0.42661   1.00
H1       0.27691    0.93746    0.50176   1.00
H2       0.20744    0.99080    0.40209   1.00
H2       0.25269    1.00501    0.42284   1.00
H2       0.29256    1.09743    0.48659   1.00
H2       0.24731    1.07397    0.47750   1.00
N1       0.24143    0.94432    0.42434   1.00
C6       0.21927    0.91227    0.42308   1.00
C6       0.27846    0.93251    0.42201   1.00
C6       0.24241    0.87954    0.42044   1.00
C6       0.28005    0.89241    0.41975   1.00
H3       0.18803    0.91248    0.42435   1.00
H3       0.30300    0.95183    0.42226   1.00
H3       0.23287    0.84963    0.41913   1.00
H3       0.30575    0.87455    0.41785   1.00
N1       0.25857    1.08638    0.53692   1.00
C6       0.22154    1.09134    0.54789   1.00
C6       0.28073    1.09492    0.56784   1.00
C6       0.21995    1.10270    0.58641   1.00
C6       0.25759    1.10497    0.59910   1.00
H3       0.19700    1.08669    0.52914   1.00
H3       0.31197    1.09364    0.56793   1.00
H3       0.19425    1.10864    0.60337   1.00
H3       0.26713    1.11309    0.62792   1.00
C4       0.72915    1.00015    0.49988   1.00
C4       0.77085    0.99985    0.50012   1.00
C3a      0.70746    1.03573    0.50058   1.00
C3       0.79232    1.00682    0.46570   1.00
C3       0.70768    0.96505    0.49880   1.00
C3a      0.79254    0.99241    0.53492   1.00
C2       0.64488    0.99995    0.49993   1.00
C2       0.85512    0.99995    0.49994   1.00
C3       0.66595    1.03505    0.50068   1.00
C3       0.83363    1.00697    0.46568   1.00
C3       0.66637    0.96499    0.49895   1.00
C3       0.83405    0.99265    0.53428   1.00
C5       0.72772    1.07494    0.50187   1.00
H1       0.77691    1.01257    0.43871   1.00
H1       0.64979    1.06216    0.50142   1.00
H1       0.84901    1.01267    0.43869   1.00
H1       0.65099    0.93742    0.49833   1.00
H1       0.85021    0.98718    0.56084   1.00
C5       0.77228    0.98470    0.57339   1.00
H1       0.72309    0.93746    0.49824   1.00
H2       0.79256    0.99080    0.59791   1.00
H2       0.74731    1.00501    0.57716   1.00
H2       0.70744    1.09743    0.51341   1.00
H2       0.75269    1.07397    0.52250   1.00
N1       0.75857    0.94432    0.57566   1.00
C6       0.78073    0.91227    0.57692   1.00
C6       0.72154    0.93251    0.57799   1.00
C6       0.75759    0.87954    0.57956   1.00
C6       0.71995    0.89241    0.58025   1.00
H3       0.81197    0.91248    0.57565   1.00
H3       0.69700    0.95183    0.57774   1.00
H3       0.76713    0.84963    0.58087   1.00
H3       0.69425    0.87455    0.58215   1.00
N1       0.74143    1.08638    0.46308   1.00
C6       0.77846    1.09134    0.45211   1.00
C6       0.71927    1.09492    0.43216   1.00
C6       0.78005    1.10270    0.41359   1.00
C6       0.74241    1.10497    0.40090   1.00
H3       0.80300    1.08669    0.47086   1.00
H3       0.68803    1.09364    0.43207   1.00
H3       0.80575    1.10864    0.39663   1.00
H3       0.73287    1.11309    0.37208   1.00
C4       0.50012    0.77085    0.50015   1.00
C4       0.49988    0.72915    0.49985   1.00
C3a      0.49942    0.79254    0.53573   1.00
C3       0.53430    0.70768    0.50682   1.00
C3       0.50120    0.79232    0.46505   1.00
C3a      0.46508    0.70746    0.49241   1.00
C2       0.50007    0.85512    0.49995   1.00
C2       0.50006    0.64488    0.49995   1.00
C3       0.49932    0.83405    0.53505   1.00
C3       0.53432    0.66637    0.50697   1.00
C3       0.50105    0.83363    0.46499   1.00
C3       0.46572    0.66595    0.49265   1.00
C5       0.49813    0.77228    0.57494   1.00
H1       0.56129    0.72309    0.51257   1.00
H1       0.49858    0.85021    0.56216   1.00
H1       0.56131    0.65099    0.51267   1.00
H1       0.50167    0.84901    0.43742   1.00
H1       0.43916    0.64979    0.48718   1.00
C5       0.42661    0.72772    0.48470   1.00
H1       0.50176    0.77691    0.43746   1.00
H2       0.40209    0.70744    0.49080   1.00
H2       0.42284    0.75269    0.50501   1.00
H2       0.48659    0.79256    0.59743   1.00
H2       0.47750    0.74731    0.57397   1.00
N1       0.42434    0.74143    0.44432   1.00
C6       0.42308    0.71927    0.41227   1.00
C6       0.42201    0.77846    0.43251   1.00
C6       0.42044    0.74241    0.37954   1.00
C6       0.41975    0.78005    0.39241   1.00
H3       0.42435    0.68803    0.41248   1.00
H3       0.42226    0.80300    0.45183   1.00
H3       0.41913    0.73287    0.34963   1.00
H3       0.41785    0.80575    0.37455   1.00
N1       0.53692    0.75857    0.58638   1.00
C6       0.54789    0.72154    0.59134   1.00
C6       0.56784    0.78073    0.59492   1.00
C6       0.58641    0.71995    0.60270   1.00
C6       0.59910    0.75759    0.60497   1.00
H3       0.52914    0.69700    0.58669   1.00
H3       0.56793    0.81197    0.59364   1.00
H3       0.60337    0.69425    0.60864   1.00
H3       0.62792    0.76713    0.61309   1.00
C4       0.50015    1.00012    0.27085   1.00
C4       0.49985    0.99988    0.22915   1.00
C3a      0.53573    0.99942    0.29254   1.00
C3       0.50682    1.03430    0.20768   1.00
C3       0.46505    1.00120    0.29232   1.00
C3a      0.49241    0.96508    0.20746   1.00
C2       0.49995    1.00007    0.35512   1.00
C2       0.49995    1.00006    0.14488   1.00
C3       0.53505    0.99932    0.33405   1.00
C3       0.50697    1.03432    0.16637   1.00
C3       0.46499    1.00105    0.33363   1.00
C3       0.49265    0.96572    0.16595   1.00
C5       0.57494    0.99813    0.27228   1.00
H1       0.51257    1.06129    0.22309   1.00
H1       0.56216    0.99858    0.35021   1.00
H1       0.51267    1.06131    0.15099   1.00
H1       0.43742    1.00167    0.34901   1.00
H1       0.48718    0.93916    0.14979   1.00
C5       0.48470    0.92661    0.22772   1.00
H1       0.43746    1.00176    0.27691   1.00
H2       0.49080    0.90209    0.20744   1.00
H2       0.50501    0.92284    0.25269   1.00
H2       0.59743    0.98659    0.29256   1.00
H2       0.57397    0.97750    0.24731   1.00
N1       0.44432    0.92434    0.24143   1.00
C6       0.41227    0.92308    0.21927   1.00
C6       0.43251    0.92201    0.27846   1.00
C6       0.37954    0.92044    0.24241   1.00
C6       0.39241    0.91975    0.28005   1.00
H3       0.41248    0.92435    0.18803   1.00
H3       0.45183    0.92226    0.30300   1.00
H3       0.34963    0.91913    0.23287   1.00
H3       0.37455    0.91785    0.30575   1.00
N1       0.58638    1.03692    0.25857   1.00
C6       0.59134    1.04789    0.22154   1.00
C6       0.59492    1.06784    0.28073   1.00
C6       0.60270    1.08641    0.21995   1.00
C6       0.60497    1.09910    0.25759   1.00
H3       0.58669    1.02914    0.19700   1.00
H3       0.59364    1.06793    0.31197   1.00
H3       0.60864    1.10337    0.19425   1.00
H3       0.61309    1.12792    0.26713   1.00
C4       1.00015    0.49988    0.72915   1.00
C4       0.99985    0.50012    0.77085   1.00
C3a      1.03573    0.50058    0.70746   1.00
C3       1.00682    0.46570    0.79232   1.00
C3       0.96505    0.49880    0.70768   1.00
C3a      0.99241    0.53492    0.79254   1.00
C2       0.99995    0.49993    0.64488   1.00
C2       0.99995    0.49994    0.85512   1.00
C3       1.03505    0.50068    0.66595   1.00
C3       1.00697    0.46568    0.83363   1.00
C3       0.96499    0.49895    0.66637   1.00
C3       0.99265    0.53428    0.83405   1.00
C5       1.07494    0.50187    0.72772   1.00
H1       1.01257    0.43871    0.77691   1.00
H1       1.06216    0.50142    0.64979   1.00
H1       1.01267    0.43869    0.84901   1.00
H1       0.93742    0.49833    0.65099   1.00
H1       0.98718    0.56084    0.85021   1.00
C5       0.98470    0.57339    0.77228   1.00
H1       0.93746    0.49824    0.72309   1.00
H2       0.99080    0.59791    0.79256   1.00
H2       1.00501    0.57716    0.74731   1.00
H2       1.09743    0.51341    0.70744   1.00
H2       1.07397    0.52250    0.75269   1.00
N1       0.94432    0.57566    0.75857   1.00
C6       0.91227    0.57692    0.78073   1.00
C6       0.93251    0.57799    0.72154   1.00
C6       0.87954    0.57956    0.75759   1.00
C6       0.89241    0.58025    0.71995   1.00
H3       0.91248    0.57565    0.81197   1.00
H3       0.95183    0.57774    0.69700   1.00
H3       0.84963    0.58087    0.76713   1.00
H3       0.87455    0.58215    0.69425   1.00
N1       1.08638    0.46308    0.74143   1.00
C6       1.09134    0.45211    0.77846   1.00
C6       1.09492    0.43216    0.71927   1.00
C6       1.10270    0.41359    0.78005   1.00
C6       1.10497    0.40090    0.74241   1.00
H3       1.08669    0.47086    0.80300   1.00
H3       1.09364    0.43207    0.68803   1.00
H3       1.10864    0.39663    0.80575   1.00
H3       1.11309    0.37208    0.73287   1.00
C4       0.99988    0.72915    0.50015   1.00
C4       1.00012    0.77085    0.49985   1.00
C3a      1.00058    0.70746    0.53573   1.00
C3       0.96570    0.79232    0.50682   1.00
C3       0.99880    0.70768    0.46505   1.00
C3a      1.03492    0.79254    0.49241   1.00
C2       0.99993    0.64488    0.49995   1.00
C2       0.99994    0.85512    0.49995   1.00
C3       1.00068    0.66595    0.53505   1.00
C3       0.96568    0.83363    0.50697   1.00
C3       0.99895    0.66637    0.46499   1.00
C3       1.03428    0.83405    0.49265   1.00
C5       1.00187    0.72772    0.57494   1.00
H1       0.93871    0.77691    0.51257   1.00
H1       1.00142    0.64979    0.56216   1.00
H1       0.93869    0.84901    0.51267   1.00
H1       0.99833    0.65099    0.43742   1.00
H1       1.06084    0.85021    0.48718   1.00
C5       1.07339    0.77228    0.48470   1.00
H1       0.99824    0.72309    0.43746   1.00
H2       1.09791    0.79256    0.49080   1.00
H2       1.07716    0.74731    0.50501   1.00
H2       1.01341    0.70744    0.59743   1.00
H2       1.02250    0.75269    0.57397   1.00
N1       1.07566    0.75857    0.44432   1.00
C6       1.07692    0.78073    0.41227   1.00
C6       1.07799    0.72154    0.43251   1.00
C6       1.07956    0.75759    0.37954   1.00
C6       1.08025    0.71995    0.39241   1.00
H3       1.07565    0.81197    0.41248   1.00
H3       1.07774    0.69700    0.45183   1.00
H3       1.08087    0.76713    0.34963   1.00
H3       1.08215    0.69425    0.37455   1.00
N1       0.96308    0.74143    0.58638   1.00
C6       0.95211    0.77846    0.59134   1.00
C6       0.93216    0.71927    0.59492   1.00
C6       0.91359    0.78005    0.60270   1.00
C6       0.90090    0.74241    0.60497   1.00
H3       0.97086    0.80300    0.58669   1.00
H3       0.93207    0.68803    0.59364   1.00
H3       0.89663    0.80575    0.60864   1.00
H3       0.87208    0.73287    0.61309   1.00
C4       0.77085    0.50015    0.50012   1.00
C4       0.72915    0.49985    0.49988   1.00
C3a      0.79254    0.53573    0.49942   1.00
C3       0.70768    0.50682    0.53430   1.00
C3       0.79232    0.46505    0.50120   1.00
C3a      0.70746    0.49241    0.46508   1.00
C2       0.85512    0.49995    0.50007   1.00
C2       0.64488    0.49995    0.50006   1.00
C3       0.83405    0.53505    0.49932   1.00
C3       0.66637    0.50697    0.53432   1.00
C3       0.83363    0.46499    0.50105   1.00
C3       0.66595    0.49265    0.46572   1.00
C5       0.77228    0.57494    0.49813   1.00
H1       0.72309    0.51257    0.56129   1.00
H1       0.85021    0.56216    0.49858   1.00
H1       0.65099    0.51267    0.56131   1.00
H1       0.84901    0.43742    0.50167   1.00
H1       0.64979    0.48718    0.43916   1.00
C5       0.72772    0.48470    0.42661   1.00
H1       0.77691    0.43746    0.50176   1.00
H2       0.70744    0.49080    0.40209   1.00
H2       0.75269    0.50501    0.42284   1.00
H2       0.79256    0.59743    0.48659   1.00
H2       0.74731    0.57397    0.47750   1.00
N1       0.74143    0.44432    0.42434   1.00
C6       0.71927    0.41227    0.42308   1.00
C6       0.77846    0.43251    0.42201   1.00
C6       0.74241    0.37954    0.42044   1.00
C6       0.78005    0.39241    0.41975   1.00
H3       0.68803    0.41248    0.42435   1.00
H3       0.80300    0.45183    0.42226   1.00
H3       0.73287    0.34963    0.41913   1.00
H3       0.80575    0.37455    0.41785   1.00
N1       0.75857    0.58638    0.53692   1.00
C6       0.72154    0.59134    0.54789   1.00
C6       0.78073    0.59492    0.56784   1.00
C6       0.71995    0.60270    0.58641   1.00
C6       0.75759    0.60497    0.59910   1.00
H3       0.69700    0.58669    0.52914   1.00
H3       0.81197    0.59364    0.56793   1.00
H3       0.69425    0.60864    0.60337   1.00
H3       0.76713    0.61309    0.62792   1.00
C4       1.22915    0.50015    0.49988   1.00
C4       1.27085    0.49985    0.50012   1.00
C3a      1.20746    0.53573    0.50058   1.00
C3       1.29232    0.50682    0.46570   1.00
C3       1.20768    0.46505    0.49880   1.00
C3a      1.29254    0.49241    0.53492   1.00
C2       1.14488    0.49995    0.49993   1.00
C2       1.35512    0.49995    0.49994   1.00
C3       1.16595    0.53505    0.50068   1.00
C3       1.33363    0.50697    0.46568   1.00
C3       1.16637    0.46499    0.49895   1.00
C3       1.33405    0.49265    0.53428   1.00
C5       1.22772    0.57494    0.50187   1.00
H1       1.27691    0.51257    0.43871   1.00
H1       1.14979    0.56216    0.50142   1.00
H1       1.34901    0.51267    0.43869   1.00
H1       1.15099    0.43742    0.49833   1.00
H1       1.35021    0.48718    0.56084   1.00
C5       1.27228    0.48470    0.57339   1.00
H1       1.22309    0.43746    0.49824   1.00
H2       1.29256    0.49080    0.59791   1.00
H2       1.24731    0.50501    0.57716   1.00
H2       1.20744    0.59743    0.51341   1.00
H2       1.25269    0.57397    0.52250   1.00
N1       1.25857    0.44432    0.57566   1.00
C6       1.28073    0.41227    0.57692   1.00
C6       1.22154    0.43251    0.57799   1.00
C6       1.25759    0.37954    0.57956   1.00
C6       1.21995    0.39241    0.58025   1.00
H3       1.31197    0.41248    0.57565   1.00
H3       1.19700    0.45183    0.57774   1.00
H3       1.26713    0.34963    0.58087   1.00
H3       1.19425    0.37455    0.58215   1.00
N1       1.24143    0.58638    0.46308   1.00
C6       1.27846    0.59134    0.45211   1.00
C6       1.21927    0.59492    0.43216   1.00
C6       1.28005    0.60270    0.41359   1.00
C6       1.24241    0.60497    0.40090   1.00
H3       1.30300    0.58669    0.47086   1.00
H3       1.18803    0.59364    0.43207   1.00
H3       1.30575    0.60864    0.39663   1.00
H3       1.23287    0.61309    0.37208   1.00
C4       1.00012    0.27085    0.50015   1.00
C4       0.99988    0.22915    0.49985   1.00
C3a      0.99942    0.29254    0.53573   1.00
C3       1.03430    0.20768    0.50682   1.00
C3       1.00120    0.29232    0.46505   1.00
C3a      0.96508    0.20746    0.49241   1.00
C2       1.00007    0.35512    0.49995   1.00
C2       1.00006    0.14488    0.49995   1.00
C3       0.99932    0.33405    0.53505   1.00
C3       1.03432    0.16637    0.50697   1.00
C3       1.00105    0.33363    0.46499   1.00
C3       0.96572    0.16595    0.49265   1.00
C5       0.99813    0.27228    0.57494   1.00
H1       1.06129    0.22309    0.51257   1.00
H1       0.99858    0.35021    0.56216   1.00
H1       1.06131    0.15099    0.51267   1.00
H1       1.00167    0.34901    0.43742   1.00
H1       0.93916    0.14979    0.48718   1.00
C5       0.92661    0.22772    0.48470   1.00
H1       1.00176    0.27691    0.43746   1.00
H2       0.90209    0.20744    0.49080   1.00
H2       0.92284    0.25269    0.50501   1.00
H2       0.98659    0.29256    0.59743   1.00
H2       0.97750    0.24731    0.57397   1.00
N1       0.92434    0.24143    0.44432   1.00
C6       0.92308    0.21927    0.41227   1.00
C6       0.92201    0.27846    0.43251   1.00
C6       0.92044    0.24241    0.37954   1.00
C6       0.91975    0.28005    0.39241   1.00
H3       0.92435    0.18803    0.41248   1.00
H3       0.92226    0.30300    0.45183   1.00
H3       0.91913    0.23287    0.34963   1.00
H3       0.91785    0.30575    0.37455   1.00
N1       1.03692    0.25857    0.58638   1.00
C6       1.04789    0.22154    0.59134   1.00
C6       1.06784    0.28073    0.59492   1.00
C6       1.08641    0.21995    0.60270   1.00
C6       1.09910    0.25759    0.60497   1.00
H3       1.02914    0.19700    0.58669   1.00
H3       1.06793    0.31197    0.59364   1.00
H3       1.10337    0.19425    0.60864   1.00
H3       1.12792    0.26713    0.61309   1.00
C4       1.00015    0.50012    0.27085   1.00
C4       0.99985    0.49988    0.22915   1.00
C3a      1.03573    0.49942    0.29254   1.00
C3       1.00682    0.53430    0.20768   1.00
C3       0.96505    0.50120    0.29232   1.00
C3a      0.99241    0.46508    0.20746   1.00
C2       0.99995    0.50007    0.35512   1.00
C2       0.99995    0.50006    0.14488   1.00
C3       1.03505    0.49932    0.33405   1.00
C3       1.00697    0.53432    0.16637   1.00
C3       0.96499    0.50105    0.33363   1.00
C3       0.99265    0.46572    0.16595   1.00
C5       1.07494    0.49813    0.27228   1.00
H1       1.01257    0.56129    0.22309   1.00
H1       1.06216    0.49858    0.35021   1.00
H1       1.01267    0.56131    0.15099   1.00
H1       0.93742    0.50167    0.34901   1.00
H1       0.98718    0.43916    0.14979   1.00
C5       0.98470    0.42661    0.22772   1.00
H1       0.93746    0.50176    0.27691   1.00
H2       0.99080    0.40209    0.20744   1.00
H2       1.00501    0.42284    0.25269   1.00
H2       1.09743    0.48659    0.29256   1.00
H2       1.07397    0.47750    0.24731   1.00
N1       0.94432    0.42434    0.24143   1.00
C6       0.91227    0.42308    0.21927   1.00
C6       0.93251    0.42201    0.27846   1.00
C6       0.87954    0.42044    0.24241   1.00
C6       0.89241    0.41975    0.28005   1.00
H3       0.91248    0.42435    0.18803   1.00
H3       0.95183    0.42226    0.30300   1.00
H3       0.84963    0.41913    0.23287   1.00
H3       0.87455    0.41785    0.30575   1.00
N1       1.08638    0.53692    0.25857   1.00
C6       1.09134    0.54789    0.22154   1.00
C6       1.09492    0.56784    0.28073   1.00
C6       1.10270    0.58641    0.21995   1.00
C6       1.10497    0.59910    0.25759   1.00
H3       1.08669    0.52914    0.19700   1.00
H3       1.09364    0.56793    0.31197   1.00
H3       1.10864    0.60337    0.19425   1.00
H3       1.11309    0.62792    0.26713   1.00
