data_IRMOF10_SG202_interpen_Ligand3lp_label_f.

_audit_creation_method             'generated by an auxiliary program of Tobunporous'

_symmetry_space_group_name_H-M     'P 1'
_symmetry_Int_Tables_number        1
_symmetry_cell_setting             triclinic

_cell_length_a                    34.2800
_cell_length_b                    34.2800
_cell_length_c                    34.2800
_cell_angle_alpha                 90.0000
_cell_angle_beta                  90.0000
_cell_angle_gamma                 90.0000

loop_
_atom_site_label
_atom_site_fract_x
_atom_site_fract_y
_atom_site_fract_z
_atom_site_occupancy
O1       0.75000    0.75000    0.75000   1.00
Zn1      0.71720    0.78280    0.78280   1.00
Zn1      0.78280    0.71720    0.78280   1.00
Zn1      0.78280    0.78280    0.71720   1.00
Zn1      0.71720    0.71720    0.71720   1.00
O2       0.72650    0.77350    0.83820   1.00
O2       0.72650    0.83820    0.77350   1.00
O2       0.66180    0.77350    0.77350   1.00
O2       0.77350    0.72650    0.83820   1.00
O2       0.83820    0.72650    0.77350   1.00
O2       0.77350    0.66180    0.77350   1.00
O2       0.77350    0.83820    0.72650   1.00
O2       0.83820    0.77350    0.72650   1.00
O2       0.77350    0.77350    0.66180   1.00
O2       0.66180    0.72650    0.72650   1.00
O2       0.72650    0.66180    0.72650   1.00
O2       0.72650    0.72650    0.66180   1.00
C1       0.75000    0.75000    0.85520   1.00
C1       0.75000    0.85520    0.75000   1.00
C1       0.64480    0.75000    0.75000   1.00
C1       0.85520    0.75000    0.75000   1.00
C1       0.75000    0.64480    0.75000   1.00
C1       0.75000    0.75000    0.64480   1.00
O1       0.25000    0.25000    0.75000   1.00
Zn1      0.21720    0.28280    0.78280   1.00
Zn1      0.28280    0.21720    0.78280   1.00
Zn1      0.28280    0.28280    0.71720   1.00
Zn1      0.21720    0.21720    0.71720   1.00
O2       0.22650    0.27350    0.83820   1.00
O2       0.22650    0.33820    0.77350   1.00
O2       0.16180    0.27350    0.77350   1.00
O2       0.27350    0.22650    0.83820   1.00
O2       0.33820    0.22650    0.77350   1.00
O2       0.27350    0.16180    0.77350   1.00
O2       0.27350    0.33820    0.72650   1.00
O2       0.33820    0.27350    0.72650   1.00
O2       0.27350    0.27350    0.66180   1.00
O2       0.16180    0.22650    0.72650   1.00
O2       0.22650    0.16180    0.72650   1.00
O2       0.22650    0.22650    0.66180   1.00
C1       0.25000    0.25000    0.85520   1.00
C1       0.25000    0.35520    0.75000   1.00
C1       0.14480    0.25000    0.75000   1.00
C1       0.35520    0.25000    0.75000   1.00
C1       0.25000    0.14480    0.75000   1.00
C1       0.25000    0.25000    0.64480   1.00
O1       0.25000    0.75000    0.25000   1.00
Zn1      0.21720    0.78280    0.28280   1.00
Zn1      0.28280    0.71720    0.28280   1.00
Zn1      0.28280    0.78280    0.21720   1.00
Zn1      0.21720    0.71720    0.21720   1.00
O2       0.22650    0.77350    0.33820   1.00
O2       0.22650    0.83820    0.27350   1.00
O2       0.16180    0.77350    0.27350   1.00
O2       0.27350    0.72650    0.33820   1.00
O2       0.33820    0.72650    0.27350   1.00
O2       0.27350    0.66180    0.27350   1.00
O2       0.27350    0.83820    0.22650   1.00
O2       0.33820    0.77350    0.22650   1.00
O2       0.27350    0.77350    0.16180   1.00
O2       0.16180    0.72650    0.22650   1.00
O2       0.22650    0.66180    0.22650   1.00
O2       0.22650    0.72650    0.16180   1.00
C1       0.25000    0.75000    0.35520   1.00
C1       0.25000    0.85520    0.25000   1.00
C1       0.14480    0.75000    0.25000   1.00
C1       0.35520    0.75000    0.25000   1.00
C1       0.25000    0.64480    0.25000   1.00
C1       0.25000    0.75000    0.14480   1.00
O1       0.75000    0.25000    0.25000   1.00
Zn1      0.71720    0.28280    0.28280   1.00
Zn1      0.78280    0.21720    0.28280   1.00
Zn1      0.78280    0.28280    0.21720   1.00
Zn1      0.71720    0.21720    0.21720   1.00
O2       0.72650    0.27350    0.33820   1.00
O2       0.72650    0.33820    0.27350   1.00
O2       0.66180    0.27350    0.27350   1.00
O2       0.77350    0.22650    0.33820   1.00
O2       0.83820    0.22650    0.27350   1.00
O2       0.77350    0.16180    0.27350   1.00
O2       0.77350    0.33820    0.22650   1.00
O2       0.83820    0.27350    0.22650   1.00
O2       0.77350    0.27350    0.16180   1.00
O2       0.66180    0.22650    0.22650   1.00
O2       0.72650    0.16180    0.22650   1.00
O2       0.72650    0.22650    0.16180   1.00
C1       0.75000    0.25000    0.35520   1.00
C1       0.75000    0.35520    0.25000   1.00
C1       0.64480    0.25000    0.25000   1.00
C1       0.85520    0.25000    0.25000   1.00
C1       0.75000    0.14480    0.25000   1.00
C1       0.75000    0.25000    0.14480   1.00
O1       0.25000    0.25000    0.25000   1.00
Zn1      0.28280    0.21720    0.21720   1.00
Zn1      0.21720    0.28280    0.21720   1.00
Zn1      0.21720    0.21720    0.28280   1.00
Zn1      0.28280    0.28280    0.28280   1.00
O2       0.27350    0.22650    0.16180   1.00
O2       0.27350    0.16180    0.22650   1.00
O2       0.33820    0.22650    0.22650   1.00
O2       0.22650    0.27350    0.16180   1.00
O2       0.16180    0.27350    0.22650   1.00
O2       0.22650    0.33820    0.22650   1.00
O2       0.22650    0.16180    0.27350   1.00
O2       0.16180    0.22650    0.27350   1.00
O2       0.22650    0.22650    0.33820   1.00
O2       0.33820    0.27350    0.27350   1.00
O2       0.27350    0.33820    0.27350   1.00
O2       0.27350    0.27350    0.33820   1.00
C1       0.25000    0.25000    0.14480   1.00
C1       0.25000    0.14480    0.25000   1.00
C1       0.35520    0.25000    0.25000   1.00
C1       0.14480    0.25000    0.25000   1.00
C1       0.25000    0.35520    0.25000   1.00
C1       0.25000    0.25000    0.35520   1.00
O1       0.75000    0.75000    0.25000   1.00
Zn1      0.78280    0.71720    0.21720   1.00
Zn1      0.71720    0.78280    0.21720   1.00
Zn1      0.71720    0.71720    0.28280   1.00
Zn1      0.78280    0.78280    0.28280   1.00
O2       0.77350    0.72650    0.16180   1.00
O2       0.77350    0.66180    0.22650   1.00
O2       0.83820    0.72650    0.22650   1.00
O2       0.72650    0.77350    0.16180   1.00
O2       0.66180    0.77350    0.22650   1.00
O2       0.72650    0.83820    0.22650   1.00
O2       0.72650    0.66180    0.27350   1.00
O2       0.66180    0.72650    0.27350   1.00
O2       0.72650    0.72650    0.33820   1.00
O2       0.83820    0.77350    0.27350   1.00
O2       0.77350    0.83820    0.27350   1.00
O2       0.77350    0.77350    0.33820   1.00
C1       0.75000    0.75000    0.14480   1.00
C1       0.75000    0.64480    0.25000   1.00
C1       0.85520    0.75000    0.25000   1.00
C1       0.64480    0.75000    0.25000   1.00
C1       0.75000    0.85520    0.25000   1.00
C1       0.75000    0.75000    0.35520   1.00
O1       0.75000    0.25000    0.75000   1.00
Zn1      0.78280    0.21720    0.71720   1.00
Zn1      0.71720    0.28280    0.71720   1.00
Zn1      0.71720    0.21720    0.78280   1.00
Zn1      0.78280    0.28280    0.78280   1.00
O2       0.77350    0.22650    0.66180   1.00
O2       0.77350    0.16180    0.72650   1.00
O2       0.83820    0.22650    0.72650   1.00
O2       0.72650    0.27350    0.66180   1.00
O2       0.66180    0.27350    0.72650   1.00
O2       0.72650    0.33820    0.72650   1.00
O2       0.72650    0.16180    0.77350   1.00
O2       0.66180    0.22650    0.77350   1.00
O2       0.72650    0.22650    0.83820   1.00
O2       0.83820    0.27350    0.77350   1.00
O2       0.77350    0.33820    0.77350   1.00
O2       0.77350    0.27350    0.83820   1.00
C1       0.75000    0.25000    0.64480   1.00
C1       0.75000    0.14480    0.75000   1.00
C1       0.85520    0.25000    0.75000   1.00
C1       0.64480    0.25000    0.75000   1.00
C1       0.75000    0.35520    0.75000   1.00
C1       0.75000    0.25000    0.85520   1.00
O1       0.25000    0.75000    0.75000   1.00
Zn1      0.28280    0.71720    0.71720   1.00
Zn1      0.21720    0.78280    0.71720   1.00
Zn1      0.21720    0.71720    0.78280   1.00
Zn1      0.28280    0.78280    0.78280   1.00
O2       0.27350    0.72650    0.66180   1.00
O2       0.27350    0.66180    0.72650   1.00
O2       0.33820    0.72650    0.72650   1.00
O2       0.22650    0.77350    0.66180   1.00
O2       0.16180    0.77350    0.72650   1.00
O2       0.22650    0.83820    0.72650   1.00
O2       0.22650    0.66180    0.77350   1.00
O2       0.16180    0.72650    0.77350   1.00
O2       0.22650    0.72650    0.83820   1.00
O2       0.33820    0.77350    0.77350   1.00
O2       0.27350    0.83820    0.77350   1.00
O2       0.27350    0.77350    0.83820   1.00
C1       0.25000    0.75000    0.64480   1.00
C1       0.25000    0.64480    0.75000   1.00
C1       0.35520    0.75000    0.75000   1.00
C1       0.14480    0.75000    0.75000   1.00
C1       0.25000    0.85520    0.75000   1.00
C1       0.25000    0.75000    0.85520   1.00
O1       1.00000    1.00000    1.00000   1.00
Zn1      0.96720    1.03280    1.03280   1.00
Zn1      1.03280    0.96720    1.03280   1.00
Zn1      1.03280    1.03280    0.96720   1.00
Zn1      0.96720    0.96720    0.96720   1.00
O2       0.97650    1.02350    1.08820   1.00
O2       0.97650    1.08820    1.02350   1.00
O2       0.91180    1.02350    1.02350   1.00
O2       1.02350    0.97650    1.08820   1.00
O2       1.08820    0.97650    1.02350   1.00
O2       1.02350    0.91180    1.02350   1.00
O2       1.02350    1.08820    0.97650   1.00
O2       1.08820    1.02350    0.97650   1.00
O2       1.02350    1.02350    0.91180   1.00
O2       0.91180    0.97650    0.97650   1.00
O2       0.97650    0.91180    0.97650   1.00
O2       0.97650    0.97650    0.91180   1.00
C1       1.00000    1.00000    1.10520   1.00
C1       1.00000    1.10520    1.00000   1.00
C1       0.89480    1.00000    1.00000   1.00
C1       1.10520    1.00000    1.00000   1.00
C1       1.00000    0.89480    1.00000   1.00
C1       1.00000    1.00000    0.89480   1.00
O1       0.50000    0.50000    1.00000   1.00
Zn1      0.46720    0.53280    1.03280   1.00
Zn1      0.53280    0.46720    1.03280   1.00
Zn1      0.53280    0.53280    0.96720   1.00
Zn1      0.46720    0.46720    0.96720   1.00
O2       0.47650    0.52350    1.08820   1.00
O2       0.47650    0.58820    1.02350   1.00
O2       0.41180    0.52350    1.02350   1.00
O2       0.52350    0.47650    1.08820   1.00
O2       0.58820    0.47650    1.02350   1.00
O2       0.52350    0.41180    1.02350   1.00
O2       0.52350    0.58820    0.97650   1.00
O2       0.58820    0.52350    0.97650   1.00
O2       0.52350    0.52350    0.91180   1.00
O2       0.41180    0.47650    0.97650   1.00
O2       0.47650    0.41180    0.97650   1.00
O2       0.47650    0.47650    0.91180   1.00
C1       0.50000    0.50000    1.10520   1.00
C1       0.50000    0.60520    1.00000   1.00
C1       0.39480    0.50000    1.00000   1.00
C1       0.60520    0.50000    1.00000   1.00
C1       0.50000    0.39480    1.00000   1.00
C1       0.50000    0.50000    0.89480   1.00
O1       0.50000    1.00000    0.50000   1.00
Zn1      0.46720    1.03280    0.53280   1.00
Zn1      0.53280    0.96720    0.53280   1.00
Zn1      0.53280    1.03280    0.46720   1.00
Zn1      0.46720    0.96720    0.46720   1.00
O2       0.47650    1.02350    0.58820   1.00
O2       0.47650    1.08820    0.52350   1.00
O2       0.41180    1.02350    0.52350   1.00
O2       0.52350    0.97650    0.58820   1.00
O2       0.58820    0.97650    0.52350   1.00
O2       0.52350    0.91180    0.52350   1.00
O2       0.52350    1.08820    0.47650   1.00
O2       0.58820    1.02350    0.47650   1.00
O2       0.52350    1.02350    0.41180   1.00
O2       0.41180    0.97650    0.47650   1.00
O2       0.47650    0.91180    0.47650   1.00
O2       0.47650    0.97650    0.41180   1.00
C1       0.50000    1.00000    0.60520   1.00
C1       0.50000    1.10520    0.50000   1.00
C1       0.39480    1.00000    0.50000   1.00
C1       0.60520    1.00000    0.50000   1.00
C1       0.50000    0.89480    0.50000   1.00
C1       0.50000    1.00000    0.39480   1.00
O1       1.00000    0.50000    0.50000   1.00
Zn1      0.96720    0.53280    0.53280   1.00
Zn1      1.03280    0.46720    0.53280   1.00
Zn1      1.03280    0.53280    0.46720   1.00
Zn1      0.96720    0.46720    0.46720   1.00
O2       0.97650    0.52350    0.58820   1.00
O2       0.97650    0.58820    0.52350   1.00
O2       0.91180    0.52350    0.52350   1.00
O2       1.02350    0.47650    0.58820   1.00
O2       1.08820    0.47650    0.52350   1.00
O2       1.02350    0.41180    0.52350   1.00
O2       1.02350    0.58820    0.47650   1.00
O2       1.08820    0.52350    0.47650   1.00
O2       1.02350    0.52350    0.41180   1.00
O2       0.91180    0.47650    0.47650   1.00
O2       0.97650    0.41180    0.47650   1.00
O2       0.97650    0.47650    0.41180   1.00
C1       1.00000    0.50000    0.60520   1.00
C1       1.00000    0.60520    0.50000   1.00
C1       0.89480    0.50000    0.50000   1.00
C1       1.10520    0.50000    0.50000   1.00
C1       1.00000    0.39480    0.50000   1.00
C1       1.00000    0.50000    0.39480   1.00
O1       0.50000    0.50000    0.50000   1.00
Zn1      0.53280    0.46720    0.46720   1.00
Zn1      0.46720    0.53280    0.46720   1.00
Zn1      0.46720    0.46720    0.53280   1.00
Zn1      0.53280    0.53280    0.53280   1.00
O2       0.52350    0.47650    0.41180   1.00
O2       0.52350    0.41180    0.47650   1.00
O2       0.58820    0.47650    0.47650   1.00
O2       0.47650    0.52350    0.41180   1.00
O2       0.41180    0.52350    0.47650   1.00
O2       0.47650    0.58820    0.47650   1.00
O2       0.47650    0.41180    0.52350   1.00
O2       0.41180    0.47650    0.52350   1.00
O2       0.47650    0.47650    0.58820   1.00
O2       0.58820    0.52350    0.52350   1.00
O2       0.52350    0.58820    0.52350   1.00
O2       0.52350    0.52350    0.58820   1.00
C1       0.50000    0.50000    0.39480   1.00
C1       0.50000    0.39480    0.50000   1.00
C1       0.60520    0.50000    0.50000   1.00
C1       0.39480    0.50000    0.50000   1.00
C1       0.50000    0.60520    0.50000   1.00
C1       0.50000    0.50000    0.60520   1.00
O1       1.00000    1.00000    0.50000   1.00
Zn1      1.03280    0.96720    0.46720   1.00
Zn1      0.96720    1.03280    0.46720   1.00
Zn1      0.96720    0.96720    0.53280   1.00
Zn1      1.03280    1.03280    0.53280   1.00
O2       1.02350    0.97650    0.41180   1.00
O2       1.02350    0.91180    0.47650   1.00
O2       1.08820    0.97650    0.47650   1.00
O2       0.97650    1.02350    0.41180   1.00
O2       0.91180    1.02350    0.47650   1.00
O2       0.97650    1.08820    0.47650   1.00
O2       0.97650    0.91180    0.52350   1.00
O2       0.91180    0.97650    0.52350   1.00
O2       0.97650    0.97650    0.58820   1.00
O2       1.08820    1.02350    0.52350   1.00
O2       1.02350    1.08820    0.52350   1.00
O2       1.02350    1.02350    0.58820   1.00
C1       1.00000    1.00000    0.39480   1.00
C1       1.00000    0.89480    0.50000   1.00
C1       1.10520    1.00000    0.50000   1.00
C1       0.89480    1.00000    0.50000   1.00
C1       1.00000    1.10520    0.50000   1.00
C1       1.00000    1.00000    0.60520   1.00
O1       1.00000    0.50000    1.00000   1.00
Zn1      1.03280    0.46720    0.96720   1.00
Zn1      0.96720    0.53280    0.96720   1.00
Zn1      0.96720    0.46720    1.03280   1.00
Zn1      1.03280    0.53280    1.03280   1.00
O2       1.02350    0.47650    0.91180   1.00
O2       1.02350    0.41180    0.97650   1.00
O2       1.08820    0.47650    0.97650   1.00
O2       0.97650    0.52350    0.91180   1.00
O2       0.91180    0.52350    0.97650   1.00
O2       0.97650    0.58820    0.97650   1.00
O2       0.97650    0.41180    1.02350   1.00
O2       0.91180    0.47650    1.02350   1.00
O2       0.97650    0.47650    1.08820   1.00
O2       1.08820    0.52350    1.02350   1.00
O2       1.02350    0.58820    1.02350   1.00
O2       1.02350    0.52350    1.08820   1.00
C1       1.00000    0.50000    0.89480   1.00
C1       1.00000    0.39480    1.00000   1.00
C1       1.10520    0.50000    1.00000   1.00
C1       0.89480    0.50000    1.00000   1.00
C1       1.00000    0.60520    1.00000   1.00
C1       1.00000    0.50000    1.10520   1.00
O1       0.50000    1.00000    1.00000   1.00
Zn1      0.53280    0.96720    0.96720   1.00
Zn1      0.46720    1.03280    0.96720   1.00
Zn1      0.46720    0.96720    1.03280   1.00
Zn1      0.53280    1.03280    1.03280   1.00
O2       0.52350    0.97650    0.91180   1.00
O2       0.52350    0.91180    0.97650   1.00
O2       0.58820    0.97650    0.97650   1.00
O2       0.47650    1.02350    0.91180   1.00
O2       0.41180    1.02350    0.97650   1.00
O2       0.47650    1.08820    0.97650   1.00
O2       0.47650    0.91180    1.02350   1.00
O2       0.41180    0.97650    1.02350   1.00
O2       0.47650    0.97650    1.08820   1.00
O2       0.58820    1.02350    1.02350   1.00
O2       0.52350    1.08820    1.02350   1.00
O2       0.52350    1.02350    1.08820   1.00
C1       0.50000    1.00000    0.89480   1.00
C1       0.50000    0.89480    1.00000   1.00
C1       0.60520    1.00000    1.00000   1.00
C1       0.39480    1.00000    1.00000   1.00
C1       0.50000    1.10520    1.00000   1.00
C1       0.50000    1.00000    1.10520   1.00
C4       0.75302    0.75040    1.02084   1.00
C4       0.75259    0.74981    0.97912   1.00
C3       0.78442    0.73589    1.04364   1.00
C3       0.78182    0.73150    0.95616   1.00
C3       0.72009    0.76575    1.04123   1.00
C3       0.72140    0.76857    0.95886   1.00
C2       0.75083    0.75087    1.10512   1.00
C2       0.74917    0.74913    0.89488   1.00
C3       0.78329    0.73590    1.08462   1.00
C3       0.78038    0.73147    0.91519   1.00
C3       0.71983    0.76617    1.08258   1.00
C3       0.71961    0.76676    0.91762   1.00
H1       0.80910    0.72501    1.03115   1.00
H1       0.80490    0.71743    0.96852   1.00
C5       0.68773    0.78074    1.02020   1.00
C5       0.69197    0.78872    0.97980   1.00
H1       0.80675    0.72476    1.09955   1.00
H1       0.80251    0.71806    0.90010   1.00
H1       0.69649    0.77826    1.09680   1.00
H1       0.69582    0.77816    0.90368   1.00
O3       0.65360    0.78942    1.03961   1.00
O3       0.66615    0.81335    0.96099   1.00
Si1      0.61900    0.75678    1.04247   1.00
Si1      0.67918    0.85841    0.95279   1.00
C6       0.58877    0.78241    1.07538   1.00
C6       0.59724    0.75331    0.99598   1.00
C6       0.63480    0.71204    1.06253   1.00
C6       0.72658    0.87309    0.96693   1.00
C6       0.67440    0.86283    0.90198   1.00
C6       0.64393    0.88868    0.97477   1.00
C6       0.60968    0.80028    1.11194   1.00
H2       0.57950    0.80741    1.05791   1.00
C6       0.55017    0.76369    1.09147   1.00
H2       0.60361    0.78193    0.98358   1.00
C6       0.61408    0.72294    0.96634   1.00
C6       0.55188    0.74863    0.99336   1.00
H2       0.65098    0.72158    1.08831   1.00
C6       0.60259    0.68335    1.07772   1.00
C6       0.66323    0.68524    1.03849   1.00
C6       0.73844    0.86808    1.01071   1.00
C6       0.76264    0.85967    0.94225   1.00
H2       0.72559    0.90456    0.96212   1.00
H2       0.69811    0.84494    0.89051   1.00
C6       0.63623    0.84550    0.88378   1.00
C6       0.67972    0.90441    0.88393   1.00
H2       0.61999    0.88919    0.95375   1.00
C6       0.62537    0.87332    1.01336   1.00
C6       0.65487    0.93239    0.98244   1.00
H2       0.63379    0.81933    1.10346   1.00
H2       0.62135    0.77744    1.13090   1.00
H2       0.58960    0.81810    1.12917   1.00
H2       0.52815    0.78632    1.09608   1.00
H2       0.53771    0.74217    1.07178   1.00
H2       0.55449    0.74942    1.11964   1.00
H2       0.60402    0.72929    0.93672   1.00
H2       0.64580    0.72357    0.96532   1.00
H2       0.60466    0.69337    0.97352   1.00
H2       0.53685    0.77220    1.00862   1.00
H2       0.54182    0.74984    0.96308   1.00
H2       0.54247    0.72070    1.00550   1.00
H2       0.58089    0.67742    1.05514   1.00
H2       0.61485    0.65539    1.08708   1.00
H2       0.58794    0.69496    1.10332   1.00
H2       0.64752    0.66553    1.01902   1.00
H2       0.68375    0.70138    1.02068   1.00
H2       0.68049    0.66709    1.05828   1.00
H2       0.74848    0.83856    1.01688   1.00
H2       0.76242    0.88780    1.01809   1.00
H2       0.71451    0.87477    1.03048   1.00
H2       0.78891    0.87543    0.95125   1.00
H2       0.76880    0.82873    0.94574   1.00
H2       0.75886    0.86566    0.91122   1.00
H2       0.63890    0.84360    0.85202   1.00
H2       0.63068    0.81593    0.89435   1.00
H2       0.61070    0.86335    0.89035   1.00
H2       0.70644    0.91838    0.89416   1.00
H2       0.68179    0.90255    0.85212   1.00
H2       0.65504    0.92335    0.89085   1.00
H2       0.64689    0.87006    1.03656   1.00
H2       0.60226    0.89263    1.02381   1.00
H2       0.61216    0.84497    1.00834   1.00
H2       0.62901    0.94931    0.99044   1.00
H2       0.67593    0.93513    1.00622   1.00
H2       0.66720    0.94618    0.95657   1.00
C4       0.75040    1.02084    0.75302   1.00
C4       0.74981    0.97912    0.75259   1.00
C3       0.73589    1.04364    0.78442   1.00
C3       0.73150    0.95616    0.78182   1.00
C3       0.76575    1.04123    0.72009   1.00
C3       0.76857    0.95886    0.72140   1.00
C2       0.75087    1.10512    0.75083   1.00
C2       0.74913    0.89488    0.74917   1.00
C3       0.73590    1.08462    0.78329   1.00
C3       0.73147    0.91519    0.78038   1.00
C3       0.76617    1.08258    0.71983   1.00
C3       0.76676    0.91762    0.71961   1.00
H1       0.72501    1.03115    0.80910   1.00
H1       0.71743    0.96852    0.80490   1.00
C5       0.78074    1.02020    0.68773   1.00
C5       0.78872    0.97980    0.69197   1.00
H1       0.72476    1.09955    0.80675   1.00
H1       0.71806    0.90010    0.80251   1.00
H1       0.77826    1.09680    0.69649   1.00
H1       0.77816    0.90368    0.69582   1.00
O3       0.78942    1.03961    0.65360   1.00
O3       0.81335    0.96099    0.66615   1.00
Si1      0.75678    1.04247    0.61900   1.00
Si1      0.85841    0.95279    0.67918   1.00
C6       0.78241    1.07538    0.58877   1.00
C6       0.75331    0.99598    0.59724   1.00
C6       0.71204    1.06253    0.63480   1.00
C6       0.87309    0.96693    0.72658   1.00
C6       0.86283    0.90198    0.67440   1.00
C6       0.88868    0.97477    0.64393   1.00
C6       0.80028    1.11194    0.60968   1.00
H2       0.80741    1.05791    0.57950   1.00
C6       0.76369    1.09147    0.55017   1.00
H2       0.78193    0.98358    0.60361   1.00
C6       0.72294    0.96634    0.61408   1.00
C6       0.74863    0.99336    0.55188   1.00
H2       0.72158    1.08831    0.65098   1.00
C6       0.68335    1.07772    0.60259   1.00
C6       0.68524    1.03849    0.66323   1.00
C6       0.86808    1.01071    0.73844   1.00
C6       0.85967    0.94225    0.76264   1.00
H2       0.90456    0.96212    0.72559   1.00
H2       0.84494    0.89051    0.69811   1.00
C6       0.84550    0.88378    0.63623   1.00
C6       0.90441    0.88393    0.67972   1.00
H2       0.88919    0.95375    0.61999   1.00
C6       0.87332    1.01336    0.62537   1.00
C6       0.93239    0.98244    0.65487   1.00
H2       0.81933    1.10346    0.63379   1.00
H2       0.77744    1.13090    0.62135   1.00
H2       0.81810    1.12917    0.58960   1.00
H2       0.78632    1.09608    0.52815   1.00
H2       0.74217    1.07178    0.53771   1.00
H2       0.74942    1.11964    0.55449   1.00
H2       0.72929    0.93672    0.60402   1.00
H2       0.72357    0.96532    0.64580   1.00
H2       0.69337    0.97352    0.60466   1.00
H2       0.77220    1.00862    0.53685   1.00
H2       0.74984    0.96308    0.54182   1.00
H2       0.72070    1.00550    0.54247   1.00
H2       0.67742    1.05514    0.58089   1.00
H2       0.65539    1.08708    0.61485   1.00
H2       0.69496    1.10332    0.58794   1.00
H2       0.66553    1.01902    0.64752   1.00
H2       0.70138    1.02068    0.68375   1.00
H2       0.66709    1.05828    0.68049   1.00
H2       0.83856    1.01688    0.74848   1.00
H2       0.88780    1.01809    0.76242   1.00
H2       0.87477    1.03048    0.71451   1.00
H2       0.87543    0.95125    0.78891   1.00
H2       0.82873    0.94574    0.76880   1.00
H2       0.86566    0.91122    0.75886   1.00
H2       0.84360    0.85202    0.63890   1.00
H2       0.81593    0.89435    0.63068   1.00
H2       0.86335    0.89035    0.61070   1.00
H2       0.91838    0.89416    0.70644   1.00
H2       0.90255    0.85212    0.68179   1.00
H2       0.92335    0.89085    0.65504   1.00
H2       0.87006    1.03656    0.64689   1.00
H2       0.89263    1.02381    0.60226   1.00
H2       0.84497    1.00834    0.61216   1.00
H2       0.94931    0.99044    0.62901   1.00
H2       0.93513    1.00622    0.67593   1.00
H2       0.94618    0.95657    0.66720   1.00
C4       0.47916    0.75302    0.74960   1.00
C4       0.52088    0.75259    0.75019   1.00
C3       0.45636    0.78442    0.76411   1.00
C3       0.54384    0.78182    0.76850   1.00
C3       0.45877    0.72009    0.73425   1.00
C3       0.54114    0.72140    0.73143   1.00
C2       0.39488    0.75083    0.74913   1.00
C2       0.60512    0.74917    0.75087   1.00
C3       0.41538    0.78329    0.76410   1.00
C3       0.58481    0.78038    0.76853   1.00
C3       0.41742    0.71983    0.73383   1.00
C3       0.58238    0.71961    0.73324   1.00
H1       0.46885    0.80910    0.77499   1.00
H1       0.53148    0.80490    0.78257   1.00
C5       0.47980    0.68773    0.71926   1.00
C5       0.52020    0.69197    0.71128   1.00
H1       0.40045    0.80675    0.77524   1.00
H1       0.59990    0.80251    0.78194   1.00
H1       0.40320    0.69649    0.72174   1.00
H1       0.59632    0.69582    0.72184   1.00
O3       0.46039    0.65360    0.71058   1.00
O3       0.53901    0.66615    0.68665   1.00
Si1      0.45753    0.61900    0.74322   1.00
Si1      0.54721    0.67918    0.64159   1.00
C6       0.42462    0.58877    0.71759   1.00
C6       0.50402    0.59724    0.74669   1.00
C6       0.43747    0.63480    0.78796   1.00
C6       0.53307    0.72658    0.62691   1.00
C6       0.59802    0.67440    0.63717   1.00
C6       0.52523    0.64393    0.61132   1.00
C6       0.38806    0.60968    0.69972   1.00
H2       0.44209    0.57950    0.69259   1.00
C6       0.40853    0.55017    0.73631   1.00
H2       0.51642    0.60361    0.71807   1.00
C6       0.53366    0.61408    0.77706   1.00
C6       0.50664    0.55188    0.75137   1.00
H2       0.41169    0.65098    0.77842   1.00
C6       0.42228    0.60259    0.81665   1.00
C6       0.46151    0.66323    0.81476   1.00
C6       0.48929    0.73844    0.63192   1.00
C6       0.55775    0.76264    0.64033   1.00
H2       0.53788    0.72559    0.59544   1.00
H2       0.60949    0.69811    0.65506   1.00
C6       0.61622    0.63623    0.65450   1.00
C6       0.61607    0.67972    0.59559   1.00
H2       0.54625    0.61999    0.61081   1.00
C6       0.48664    0.62537    0.62668   1.00
C6       0.51756    0.65487    0.56761   1.00
H2       0.39654    0.63379    0.68067   1.00
H2       0.36910    0.62135    0.72256   1.00
H2       0.37083    0.58960    0.68190   1.00
H2       0.40392    0.52815    0.71368   1.00
H2       0.42822    0.53771    0.75783   1.00
H2       0.38036    0.55449    0.75058   1.00
H2       0.56328    0.60402    0.77071   1.00
H2       0.53468    0.64580    0.77643   1.00
H2       0.52648    0.60466    0.80663   1.00
H2       0.49138    0.53685    0.72780   1.00
H2       0.53692    0.54182    0.75016   1.00
H2       0.49450    0.54247    0.77930   1.00
H2       0.44486    0.58089    0.82258   1.00
H2       0.41292    0.61485    0.84461   1.00
H2       0.39668    0.58794    0.80504   1.00
H2       0.48098    0.64752    0.83447   1.00
H2       0.47932    0.68375    0.79862   1.00
H2       0.44172    0.68049    0.83291   1.00
H2       0.48312    0.74848    0.66144   1.00
H2       0.48191    0.76242    0.61220   1.00
H2       0.46952    0.71451    0.62523   1.00
H2       0.54875    0.78891    0.62457   1.00
H2       0.55426    0.76880    0.67127   1.00
H2       0.58878    0.75886    0.63434   1.00
H2       0.64798    0.63890    0.65640   1.00
H2       0.60565    0.63068    0.68407   1.00
H2       0.60965    0.61070    0.63665   1.00
H2       0.60584    0.70644    0.58162   1.00
H2       0.64788    0.68179    0.59745   1.00
H2       0.60915    0.65504    0.57665   1.00
H2       0.46344    0.64689    0.62994   1.00
H2       0.47619    0.60226    0.60737   1.00
H2       0.49166    0.61216    0.65503   1.00
H2       0.50956    0.62901    0.55069   1.00
H2       0.49378    0.67593    0.56487   1.00
H2       0.54343    0.66720    0.55382   1.00
C4       1.02084    0.75302    0.75040   1.00
C4       0.97912    0.75259    0.74981   1.00
C3       1.04364    0.78442    0.73589   1.00
C3       0.95616    0.78182    0.73150   1.00
C3       1.04123    0.72009    0.76575   1.00
C3       0.95886    0.72140    0.76857   1.00
C2       1.10512    0.75083    0.75087   1.00
C2       0.89488    0.74917    0.74913   1.00
C3       1.08462    0.78329    0.73590   1.00
C3       0.91519    0.78038    0.73147   1.00
C3       1.08258    0.71983    0.76617   1.00
C3       0.91762    0.71961    0.76676   1.00
H1       1.03115    0.80910    0.72501   1.00
H1       0.96852    0.80490    0.71743   1.00
C5       1.02020    0.68773    0.78074   1.00
C5       0.97980    0.69197    0.78872   1.00
H1       1.09955    0.80675    0.72476   1.00
H1       0.90010    0.80251    0.71806   1.00
H1       1.09680    0.69649    0.77826   1.00
H1       0.90368    0.69582    0.77816   1.00
O3       1.03961    0.65360    0.78942   1.00
O3       0.96099    0.66615    0.81335   1.00
Si1      1.04247    0.61900    0.75678   1.00
Si1      0.95279    0.67918    0.85841   1.00
C6       1.07538    0.58877    0.78241   1.00
C6       0.99598    0.59724    0.75331   1.00
C6       1.06253    0.63480    0.71204   1.00
C6       0.96693    0.72658    0.87309   1.00
C6       0.90198    0.67440    0.86283   1.00
C6       0.97477    0.64393    0.88868   1.00
C6       1.11194    0.60968    0.80028   1.00
H2       1.05791    0.57950    0.80741   1.00
C6       1.09147    0.55017    0.76369   1.00
H2       0.98358    0.60361    0.78193   1.00
C6       0.96634    0.61408    0.72294   1.00
C6       0.99336    0.55188    0.74863   1.00
H2       1.08831    0.65098    0.72158   1.00
C6       1.07772    0.60259    0.68335   1.00
C6       1.03849    0.66323    0.68524   1.00
C6       1.01071    0.73844    0.86808   1.00
C6       0.94225    0.76264    0.85967   1.00
H2       0.96212    0.72559    0.90456   1.00
H2       0.89051    0.69811    0.84494   1.00
C6       0.88378    0.63623    0.84550   1.00
C6       0.88393    0.67972    0.90441   1.00
H2       0.95375    0.61999    0.88919   1.00
C6       1.01336    0.62537    0.87332   1.00
C6       0.98244    0.65487    0.93239   1.00
H2       1.10346    0.63379    0.81933   1.00
H2       1.13090    0.62135    0.77744   1.00
H2       1.12917    0.58960    0.81810   1.00
H2       1.09608    0.52815    0.78632   1.00
H2       1.07178    0.53771    0.74217   1.00
H2       1.11964    0.55449    0.74942   1.00
H2       0.93672    0.60402    0.72929   1.00
H2       0.96532    0.64580    0.72357   1.00
H2       0.97352    0.60466    0.69337   1.00
H2       1.00862    0.53685    0.77220   1.00
H2       0.96308    0.54182    0.74984   1.00
H2       1.00550    0.54247    0.72070   1.00
H2       1.05514    0.58089    0.67742   1.00
H2       1.08708    0.61485    0.65539   1.00
H2       1.10332    0.58794    0.69496   1.00
H2       1.01902    0.64752    0.66553   1.00
H2       1.02068    0.68375    0.70138   1.00
H2       1.05828    0.68049    0.66709   1.00
H2       1.01688    0.74848    0.83856   1.00
H2       1.01809    0.76242    0.88780   1.00
H2       1.03048    0.71451    0.87477   1.00
H2       0.95125    0.78891    0.87543   1.00
H2       0.94574    0.76880    0.82873   1.00
H2       0.91122    0.75886    0.86566   1.00
H2       0.85202    0.63890    0.84360   1.00
H2       0.89435    0.63068    0.81593   1.00
H2       0.89035    0.61070    0.86335   1.00
H2       0.89416    0.70644    0.91838   1.00
H2       0.85212    0.68179    0.90255   1.00
H2       0.89085    0.65504    0.92335   1.00
H2       1.03656    0.64689    0.87006   1.00
H2       1.02381    0.60226    0.89263   1.00
H2       1.00834    0.61216    0.84497   1.00
H2       0.99044    0.62901    0.94931   1.00
H2       1.00622    0.67593    0.93513   1.00
H2       0.95657    0.66720    0.94618   1.00
C4       0.74960    0.47916    0.75302   1.00
C4       0.75019    0.52088    0.75259   1.00
C3       0.76411    0.45636    0.78442   1.00
C3       0.76850    0.54384    0.78182   1.00
C3       0.73425    0.45877    0.72009   1.00
C3       0.73143    0.54114    0.72140   1.00
C2       0.74913    0.39488    0.75083   1.00
C2       0.75087    0.60512    0.74917   1.00
C3       0.76410    0.41538    0.78329   1.00
C3       0.76853    0.58481    0.78038   1.00
C3       0.73383    0.41742    0.71983   1.00
C3       0.73324    0.58238    0.71961   1.00
H1       0.77499    0.46885    0.80910   1.00
H1       0.78257    0.53148    0.80490   1.00
C5       0.71926    0.47980    0.68773   1.00
C5       0.71128    0.52020    0.69197   1.00
H1       0.77524    0.40045    0.80675   1.00
H1       0.78194    0.59990    0.80251   1.00
H1       0.72174    0.40320    0.69649   1.00
H1       0.72184    0.59632    0.69582   1.00
O3       0.71058    0.46039    0.65360   1.00
O3       0.68665    0.53901    0.66615   1.00
Si1      0.74322    0.45753    0.61900   1.00
Si1      0.64159    0.54721    0.67918   1.00
C6       0.71759    0.42462    0.58877   1.00
C6       0.74669    0.50402    0.59724   1.00
C6       0.78796    0.43747    0.63480   1.00
C6       0.62691    0.53307    0.72658   1.00
C6       0.63717    0.59802    0.67440   1.00
C6       0.61132    0.52523    0.64393   1.00
C6       0.69972    0.38806    0.60968   1.00
H2       0.69259    0.44209    0.57950   1.00
C6       0.73631    0.40853    0.55017   1.00
H2       0.71807    0.51642    0.60361   1.00
C6       0.77706    0.53366    0.61408   1.00
C6       0.75137    0.50664    0.55188   1.00
H2       0.77842    0.41169    0.65098   1.00
C6       0.81665    0.42228    0.60259   1.00
C6       0.81476    0.46151    0.66323   1.00
C6       0.63192    0.48929    0.73844   1.00
C6       0.64033    0.55775    0.76264   1.00
H2       0.59544    0.53788    0.72559   1.00
H2       0.65506    0.60949    0.69811   1.00
C6       0.65450    0.61622    0.63623   1.00
C6       0.59559    0.61607    0.67972   1.00
H2       0.61081    0.54625    0.61999   1.00
C6       0.62668    0.48664    0.62537   1.00
C6       0.56761    0.51756    0.65487   1.00
H2       0.68067    0.39654    0.63379   1.00
H2       0.72256    0.36910    0.62135   1.00
H2       0.68190    0.37083    0.58960   1.00
H2       0.71368    0.40392    0.52815   1.00
H2       0.75783    0.42822    0.53771   1.00
H2       0.75058    0.38036    0.55449   1.00
H2       0.77071    0.56328    0.60402   1.00
H2       0.77643    0.53468    0.64580   1.00
H2       0.80663    0.52648    0.60466   1.00
H2       0.72780    0.49138    0.53685   1.00
H2       0.75016    0.53692    0.54182   1.00
H2       0.77930    0.49450    0.54247   1.00
H2       0.82258    0.44486    0.58089   1.00
H2       0.84461    0.41292    0.61485   1.00
H2       0.80504    0.39668    0.58794   1.00
H2       0.83447    0.48098    0.64752   1.00
H2       0.79862    0.47932    0.68375   1.00
H2       0.83291    0.44172    0.68049   1.00
H2       0.66144    0.48312    0.74848   1.00
H2       0.61220    0.48191    0.76242   1.00
H2       0.62523    0.46952    0.71451   1.00
H2       0.62457    0.54875    0.78891   1.00
H2       0.67127    0.55426    0.76880   1.00
H2       0.63434    0.58878    0.75886   1.00
H2       0.65640    0.64798    0.63890   1.00
H2       0.68407    0.60565    0.63068   1.00
H2       0.63665    0.60965    0.61070   1.00
H2       0.58162    0.60584    0.70644   1.00
H2       0.59745    0.64788    0.68179   1.00
H2       0.57665    0.60915    0.65504   1.00
H2       0.62994    0.46344    0.64689   1.00
H2       0.60737    0.47619    0.60226   1.00
H2       0.65503    0.49166    0.61216   1.00
H2       0.55069    0.50956    0.62901   1.00
H2       0.56487    0.49378    0.67593   1.00
H2       0.55382    0.54343    0.66720   1.00
C4       0.75302    0.74960    0.47916   1.00
C4       0.75259    0.75019    0.52088   1.00
C3       0.78442    0.76411    0.45636   1.00
C3       0.78182    0.76850    0.54384   1.00
C3       0.72009    0.73425    0.45877   1.00
C3       0.72140    0.73143    0.54114   1.00
C2       0.75083    0.74913    0.39488   1.00
C2       0.74917    0.75087    0.60512   1.00
C3       0.78329    0.76410    0.41538   1.00
C3       0.78038    0.76853    0.58481   1.00
C3       0.71983    0.73383    0.41742   1.00
C3       0.71961    0.73324    0.58238   1.00
H1       0.80910    0.77499    0.46885   1.00
H1       0.80490    0.78257    0.53148   1.00
C5       0.68773    0.71926    0.47980   1.00
C5       0.69197    0.71128    0.52020   1.00
H1       0.80675    0.77524    0.40045   1.00
H1       0.80251    0.78194    0.59990   1.00
H1       0.69649    0.72174    0.40320   1.00
H1       0.69582    0.72184    0.59632   1.00
O3       0.65360    0.71058    0.46039   1.00
O3       0.66615    0.68665    0.53901   1.00
Si1      0.61900    0.74322    0.45753   1.00
Si1      0.67918    0.64159    0.54721   1.00
C6       0.58877    0.71759    0.42462   1.00
C6       0.59724    0.74669    0.50402   1.00
C6       0.63480    0.78796    0.43747   1.00
C6       0.72658    0.62691    0.53307   1.00
C6       0.67440    0.63717    0.59802   1.00
C6       0.64393    0.61132    0.52523   1.00
C6       0.60968    0.69972    0.38806   1.00
H2       0.57950    0.69259    0.44209   1.00
C6       0.55017    0.73631    0.40853   1.00
H2       0.60361    0.71807    0.51642   1.00
C6       0.61408    0.77706    0.53366   1.00
C6       0.55188    0.75137    0.50664   1.00
H2       0.65098    0.77842    0.41169   1.00
C6       0.60259    0.81665    0.42228   1.00
C6       0.66323    0.81476    0.46151   1.00
C6       0.73844    0.63192    0.48929   1.00
C6       0.76264    0.64033    0.55775   1.00
H2       0.72559    0.59544    0.53788   1.00
H2       0.69811    0.65506    0.60949   1.00
C6       0.63623    0.65450    0.61622   1.00
C6       0.67972    0.59559    0.61607   1.00
H2       0.61999    0.61081    0.54625   1.00
C6       0.62537    0.62668    0.48664   1.00
C6       0.65487    0.56761    0.51756   1.00
H2       0.63379    0.68067    0.39654   1.00
H2       0.62135    0.72256    0.36910   1.00
H2       0.58960    0.68190    0.37083   1.00
H2       0.52815    0.71368    0.40392   1.00
H2       0.53771    0.75783    0.42822   1.00
H2       0.55449    0.75058    0.38036   1.00
H2       0.60402    0.77071    0.56328   1.00
H2       0.64580    0.77643    0.53468   1.00
H2       0.60466    0.80663    0.52648   1.00
H2       0.53685    0.72780    0.49138   1.00
H2       0.54182    0.75016    0.53692   1.00
H2       0.54247    0.77930    0.49450   1.00
H2       0.58089    0.82258    0.44486   1.00
H2       0.61485    0.84461    0.41292   1.00
H2       0.58794    0.80504    0.39668   1.00
H2       0.64752    0.83447    0.48098   1.00
H2       0.68375    0.79862    0.47932   1.00
H2       0.68049    0.83291    0.44172   1.00
H2       0.74848    0.66144    0.48312   1.00
H2       0.76242    0.61220    0.48191   1.00
H2       0.71451    0.62523    0.46952   1.00
H2       0.78891    0.62457    0.54875   1.00
H2       0.76880    0.67127    0.55426   1.00
H2       0.75886    0.63434    0.58878   1.00
H2       0.63890    0.65640    0.64798   1.00
H2       0.63068    0.68407    0.60565   1.00
H2       0.61070    0.63665    0.60965   1.00
H2       0.70644    0.58162    0.60584   1.00
H2       0.68179    0.59745    0.64788   1.00
H2       0.65504    0.57665    0.60915   1.00
H2       0.64689    0.62994    0.46344   1.00
H2       0.60226    0.60737    0.47619   1.00
H2       0.61216    0.65503    0.49166   1.00
H2       0.62901    0.55069    0.50956   1.00
H2       0.67593    0.56487    0.49378   1.00
H2       0.66720    0.55382    0.54343   1.00
C4       0.25302    0.25040    1.02084   1.00
C4       0.25259    0.24981    0.97912   1.00
C3       0.28442    0.23589    1.04364   1.00
C3       0.28182    0.23150    0.95616   1.00
C3       0.22009    0.26575    1.04123   1.00
C3       0.22140    0.26857    0.95886   1.00
C2       0.25083    0.25087    1.10512   1.00
C2       0.24917    0.24913    0.89488   1.00
C3       0.28329    0.23590    1.08462   1.00
C3       0.28038    0.23147    0.91519   1.00
C3       0.21983    0.26617    1.08258   1.00
C3       0.21961    0.26676    0.91762   1.00
H1       0.30910    0.22501    1.03115   1.00
H1       0.30490    0.21743    0.96852   1.00
C5       0.18773    0.28074    1.02020   1.00
C5       0.19197    0.28872    0.97980   1.00
H1       0.30675    0.22476    1.09955   1.00
H1       0.30251    0.21806    0.90010   1.00
H1       0.19649    0.27826    1.09680   1.00
H1       0.19582    0.27816    0.90368   1.00
O3       0.15360    0.28942    1.03961   1.00
O3       0.16615    0.31335    0.96099   1.00
Si1      0.11900    0.25678    1.04247   1.00
Si1      0.17918    0.35841    0.95279   1.00
C6       0.08877    0.28241    1.07538   1.00
C6       0.09724    0.25331    0.99598   1.00
C6       0.13480    0.21204    1.06253   1.00
C6       0.22658    0.37309    0.96693   1.00
C6       0.17440    0.36283    0.90198   1.00
C6       0.14393    0.38868    0.97477   1.00
C6       0.10968    0.30028    1.11194   1.00
H2       0.07950    0.30741    1.05791   1.00
C6       0.05017    0.26369    1.09147   1.00
H2       0.10361    0.28193    0.98358   1.00
C6       0.11408    0.22294    0.96634   1.00
C6       0.05188    0.24863    0.99336   1.00
H2       0.15098    0.22158    1.08831   1.00
C6       0.10259    0.18335    1.07772   1.00
C6       0.16323    0.18524    1.03849   1.00
C6       0.23844    0.36808    1.01071   1.00
C6       0.26264    0.35967    0.94225   1.00
H2       0.22559    0.40456    0.96212   1.00
H2       0.19811    0.34494    0.89051   1.00
C6       0.13623    0.34550    0.88378   1.00
C6       0.17972    0.40441    0.88393   1.00
H2       0.11999    0.38919    0.95375   1.00
C6       0.12537    0.37332    1.01336   1.00
C6       0.15487    0.43239    0.98244   1.00
H2       0.13379    0.31933    1.10346   1.00
H2       0.12135    0.27744    1.13090   1.00
H2       0.08960    0.31810    1.12917   1.00
H2       0.02815    0.28632    1.09608   1.00
H2       0.03771    0.24217    1.07178   1.00
H2       0.05449    0.24942    1.11964   1.00
H2       0.10402    0.22929    0.93672   1.00
H2       0.14580    0.22357    0.96532   1.00
H2       0.10466    0.19337    0.97352   1.00
H2       0.03685    0.27220    1.00862   1.00
H2       0.04182    0.24984    0.96308   1.00
H2       0.04247    0.22070    1.00550   1.00
H2       0.08089    0.17742    1.05514   1.00
H2       0.11485    0.15539    1.08708   1.00
H2       0.08794    0.19496    1.10332   1.00
H2       0.14752    0.16553    1.01902   1.00
H2       0.18375    0.20138    1.02068   1.00
H2       0.18049    0.16709    1.05828   1.00
H2       0.24848    0.33856    1.01688   1.00
H2       0.26242    0.38780    1.01809   1.00
H2       0.21451    0.37477    1.03048   1.00
H2       0.28891    0.37543    0.95125   1.00
H2       0.26880    0.32873    0.94574   1.00
H2       0.25886    0.36566    0.91122   1.00
H2       0.13890    0.34360    0.85202   1.00
H2       0.13068    0.31593    0.89435   1.00
H2       0.11070    0.36335    0.89035   1.00
H2       0.20644    0.41838    0.89416   1.00
H2       0.18179    0.40255    0.85212   1.00
H2       0.15504    0.42335    0.89085   1.00
H2       0.14689    0.37006    1.03656   1.00
H2       0.10226    0.39263    1.02381   1.00
H2       0.11216    0.34497    1.00834   1.00
H2       0.12901    0.44931    0.99044   1.00
H2       0.17593    0.43513    1.00622   1.00
H2       0.16720    0.44618    0.95657   1.00
C4       0.25040    0.52084    0.75302   1.00
C4       0.24981    0.47912    0.75259   1.00
C3       0.23589    0.54364    0.78442   1.00
C3       0.23150    0.45616    0.78182   1.00
C3       0.26575    0.54123    0.72009   1.00
C3       0.26857    0.45886    0.72140   1.00
C2       0.25087    0.60512    0.75083   1.00
C2       0.24913    0.39488    0.74917   1.00
C3       0.23590    0.58462    0.78329   1.00
C3       0.23147    0.41519    0.78038   1.00
C3       0.26617    0.58258    0.71983   1.00
C3       0.26676    0.41762    0.71961   1.00
H1       0.22501    0.53115    0.80910   1.00
H1       0.21743    0.46852    0.80490   1.00
C5       0.28074    0.52020    0.68773   1.00
C5       0.28872    0.47980    0.69197   1.00
H1       0.22476    0.59955    0.80675   1.00
H1       0.21806    0.40010    0.80251   1.00
H1       0.27826    0.59680    0.69649   1.00
H1       0.27816    0.40368    0.69582   1.00
O3       0.28942    0.53961    0.65360   1.00
O3       0.31335    0.46099    0.66615   1.00
Si1      0.25678    0.54247    0.61900   1.00
Si1      0.35841    0.45279    0.67918   1.00
C6       0.28241    0.57538    0.58877   1.00
C6       0.25331    0.49598    0.59724   1.00
C6       0.21204    0.56253    0.63480   1.00
C6       0.37309    0.46693    0.72658   1.00
C6       0.36283    0.40198    0.67440   1.00
C6       0.38868    0.47477    0.64393   1.00
C6       0.30028    0.61194    0.60968   1.00
H2       0.30741    0.55791    0.57950   1.00
C6       0.26369    0.59147    0.55017   1.00
H2       0.28193    0.48358    0.60361   1.00
C6       0.22294    0.46634    0.61408   1.00
C6       0.24863    0.49336    0.55188   1.00
H2       0.22158    0.58831    0.65098   1.00
C6       0.18335    0.57772    0.60259   1.00
C6       0.18524    0.53849    0.66323   1.00
C6       0.36808    0.51071    0.73844   1.00
C6       0.35967    0.44225    0.76264   1.00
H2       0.40456    0.46212    0.72559   1.00
H2       0.34494    0.39051    0.69811   1.00
C6       0.34550    0.38378    0.63623   1.00
C6       0.40441    0.38393    0.67972   1.00
H2       0.38919    0.45375    0.61999   1.00
C6       0.37332    0.51336    0.62537   1.00
C6       0.43239    0.48244    0.65487   1.00
H2       0.31933    0.60346    0.63379   1.00
H2       0.27744    0.63090    0.62135   1.00
H2       0.31810    0.62917    0.58960   1.00
H2       0.28632    0.59608    0.52815   1.00
H2       0.24217    0.57178    0.53771   1.00
H2       0.24942    0.61964    0.55449   1.00
H2       0.22929    0.43672    0.60402   1.00
H2       0.22357    0.46532    0.64580   1.00
H2       0.19337    0.47352    0.60466   1.00
H2       0.27220    0.50862    0.53685   1.00
H2       0.24984    0.46308    0.54182   1.00
H2       0.22070    0.50550    0.54247   1.00
H2       0.17742    0.55514    0.58089   1.00
H2       0.15539    0.58708    0.61485   1.00
H2       0.19496    0.60332    0.58794   1.00
H2       0.16553    0.51902    0.64752   1.00
H2       0.20138    0.52068    0.68375   1.00
H2       0.16709    0.55828    0.68049   1.00
H2       0.33856    0.51688    0.74848   1.00
H2       0.38780    0.51809    0.76242   1.00
H2       0.37477    0.53048    0.71451   1.00
H2       0.37543    0.45125    0.78891   1.00
H2       0.32873    0.44574    0.76880   1.00
H2       0.36566    0.41122    0.75886   1.00
H2       0.34360    0.35202    0.63890   1.00
H2       0.31593    0.39435    0.63068   1.00
H2       0.36335    0.39035    0.61070   1.00
H2       0.41838    0.39416    0.70644   1.00
H2       0.40255    0.35212    0.68179   1.00
H2       0.42335    0.39085    0.65504   1.00
H2       0.37006    0.53656    0.64689   1.00
H2       0.39263    0.52381    0.60226   1.00
H2       0.34497    0.50834    0.61216   1.00
H2       0.44931    0.49044    0.62901   1.00
H2       0.43513    0.50622    0.67593   1.00
H2       0.44618    0.45657    0.66720   1.00
C4       -0.02084   0.25302    0.74960   1.00
C4       0.02088    0.25259    0.75019   1.00
C3       -0.04364   0.28442    0.76411   1.00
C3       0.04384    0.28182    0.76850   1.00
C3       -0.04123   0.22009    0.73425   1.00
C3       0.04114    0.22140    0.73143   1.00
C2       -0.10512   0.25083    0.74913   1.00
C2       0.10512    0.24917    0.75087   1.00
C3       -0.08462   0.28329    0.76410   1.00
C3       0.08481    0.28038    0.76853   1.00
C3       -0.08258   0.21983    0.73383   1.00
C3       0.08238    0.21961    0.73324   1.00
H1       -0.03115   0.30910    0.77499   1.00
H1       0.03148    0.30490    0.78257   1.00
C5       -0.02020   0.18773    0.71926   1.00
C5       0.02020    0.19197    0.71128   1.00
H1       -0.09955   0.30675    0.77524   1.00
H1       0.09990    0.30251    0.78194   1.00
H1       -0.09680   0.19649    0.72174   1.00
H1       0.09632    0.19582    0.72184   1.00
O3       -0.03961   0.15360    0.71058   1.00
O3       0.03901    0.16615    0.68665   1.00
Si1      -0.04247   0.11900    0.74322   1.00
Si1      0.04721    0.17918    0.64159   1.00
C6       -0.07538   0.08877    0.71759   1.00
C6       0.00402    0.09724    0.74669   1.00
C6       -0.06253   0.13480    0.78796   1.00
C6       0.03307    0.22658    0.62691   1.00
C6       0.09802    0.17440    0.63717   1.00
C6       0.02523    0.14393    0.61132   1.00
C6       -0.11194   0.10968    0.69972   1.00
H2       -0.05791   0.07950    0.69259   1.00
C6       -0.09147   0.05017    0.73631   1.00
H2       0.01642    0.10361    0.71807   1.00
C6       0.03366    0.11408    0.77706   1.00
C6       0.00664    0.05188    0.75137   1.00
H2       -0.08831   0.15098    0.77842   1.00
C6       -0.07772   0.10259    0.81665   1.00
C6       -0.03849   0.16323    0.81476   1.00
C6       -0.01071   0.23844    0.63192   1.00
C6       0.05775    0.26264    0.64033   1.00
H2       0.03788    0.22559    0.59544   1.00
H2       0.10949    0.19811    0.65506   1.00
C6       0.11622    0.13623    0.65450   1.00
C6       0.11607    0.17972    0.59559   1.00
H2       0.04625    0.11999    0.61081   1.00
C6       -0.01336   0.12537    0.62668   1.00
C6       0.01756    0.15487    0.56761   1.00
H2       -0.10346   0.13379    0.68067   1.00
H2       -0.13090   0.12135    0.72256   1.00
H2       -0.12917   0.08960    0.68190   1.00
H2       -0.09608   0.02815    0.71368   1.00
H2       -0.07178   0.03771    0.75783   1.00
H2       -0.11964   0.05449    0.75058   1.00
H2       0.06328    0.10402    0.77071   1.00
H2       0.03468    0.14580    0.77643   1.00
H2       0.02648    0.10466    0.80663   1.00
H2       -0.00862   0.03685    0.72780   1.00
H2       0.03692    0.04182    0.75016   1.00
H2       -0.00550   0.04247    0.77930   1.00
H2       -0.05514   0.08089    0.82258   1.00
H2       -0.08708   0.11485    0.84461   1.00
H2       -0.10332   0.08794    0.80504   1.00
H2       -0.01902   0.14752    0.83447   1.00
H2       -0.02068   0.18375    0.79862   1.00
H2       -0.05828   0.18049    0.83291   1.00
H2       -0.01688   0.24848    0.66144   1.00
H2       -0.01809   0.26242    0.61220   1.00
H2       -0.03048   0.21451    0.62523   1.00
H2       0.04875    0.28891    0.62457   1.00
H2       0.05426    0.26880    0.67127   1.00
H2       0.08878    0.25886    0.63434   1.00
H2       0.14798    0.13890    0.65640   1.00
H2       0.10565    0.13068    0.68407   1.00
H2       0.10965    0.11070    0.63665   1.00
H2       0.10584    0.20644    0.58162   1.00
H2       0.14788    0.18179    0.59745   1.00
H2       0.10915    0.15504    0.57665   1.00
H2       -0.03656   0.14689    0.62994   1.00
H2       -0.02381   0.10226    0.60737   1.00
H2       -0.00834   0.11216    0.65503   1.00
H2       0.00956    0.12901    0.55069   1.00
H2       -0.00622   0.17593    0.56487   1.00
H2       0.04343    0.16720    0.55382   1.00
C4       0.52084    0.25302    0.75040   1.00
C4       0.47912    0.25259    0.74981   1.00
C3       0.54364    0.28442    0.73589   1.00
C3       0.45616    0.28182    0.73150   1.00
C3       0.54123    0.22009    0.76575   1.00
C3       0.45886    0.22140    0.76857   1.00
C2       0.60512    0.25083    0.75087   1.00
C2       0.39488    0.24917    0.74913   1.00
C3       0.58462    0.28329    0.73590   1.00
C3       0.41519    0.28038    0.73147   1.00
C3       0.58258    0.21983    0.76617   1.00
C3       0.41762    0.21961    0.76676   1.00
H1       0.53115    0.30910    0.72501   1.00
H1       0.46852    0.30490    0.71743   1.00
C5       0.52020    0.18773    0.78074   1.00
C5       0.47980    0.19197    0.78872   1.00
H1       0.59955    0.30675    0.72476   1.00
H1       0.40010    0.30251    0.71806   1.00
H1       0.59680    0.19649    0.77826   1.00
H1       0.40368    0.19582    0.77816   1.00
O3       0.53961    0.15360    0.78942   1.00
O3       0.46099    0.16615    0.81335   1.00
Si1      0.54247    0.11900    0.75678   1.00
Si1      0.45279    0.17918    0.85841   1.00
C6       0.57538    0.08877    0.78241   1.00
C6       0.49598    0.09724    0.75331   1.00
C6       0.56253    0.13480    0.71204   1.00
C6       0.46693    0.22658    0.87309   1.00
C6       0.40198    0.17440    0.86283   1.00
C6       0.47477    0.14393    0.88868   1.00
C6       0.61194    0.10968    0.80028   1.00
H2       0.55791    0.07950    0.80741   1.00
C6       0.59147    0.05017    0.76369   1.00
H2       0.48358    0.10361    0.78193   1.00
C6       0.46634    0.11408    0.72294   1.00
C6       0.49336    0.05188    0.74863   1.00
H2       0.58831    0.15098    0.72158   1.00
C6       0.57772    0.10259    0.68335   1.00
C6       0.53849    0.16323    0.68524   1.00
C6       0.51071    0.23844    0.86808   1.00
C6       0.44225    0.26264    0.85967   1.00
H2       0.46212    0.22559    0.90456   1.00
H2       0.39051    0.19811    0.84494   1.00
C6       0.38378    0.13623    0.84550   1.00
C6       0.38393    0.17972    0.90441   1.00
H2       0.45375    0.11999    0.88919   1.00
C6       0.51336    0.12537    0.87332   1.00
C6       0.48244    0.15487    0.93239   1.00
H2       0.60346    0.13379    0.81933   1.00
H2       0.63090    0.12135    0.77744   1.00
H2       0.62917    0.08960    0.81810   1.00
H2       0.59608    0.02815    0.78632   1.00
H2       0.57178    0.03771    0.74217   1.00
H2       0.61964    0.05449    0.74942   1.00
H2       0.43672    0.10402    0.72929   1.00
H2       0.46532    0.14580    0.72357   1.00
H2       0.47352    0.10466    0.69337   1.00
H2       0.50862    0.03685    0.77220   1.00
H2       0.46308    0.04182    0.74984   1.00
H2       0.50550    0.04247    0.72070   1.00
H2       0.55514    0.08089    0.67742   1.00
H2       0.58708    0.11485    0.65539   1.00
H2       0.60332    0.08794    0.69496   1.00
H2       0.51902    0.14752    0.66553   1.00
H2       0.52068    0.18375    0.70138   1.00
H2       0.55828    0.18049    0.66709   1.00
H2       0.51688    0.24848    0.83856   1.00
H2       0.51809    0.26242    0.88780   1.00
H2       0.53048    0.21451    0.87477   1.00
H2       0.45125    0.28891    0.87543   1.00
H2       0.44574    0.26880    0.82873   1.00
H2       0.41122    0.25886    0.86566   1.00
H2       0.35202    0.13890    0.84360   1.00
H2       0.39435    0.13068    0.81593   1.00
H2       0.39035    0.11070    0.86335   1.00
H2       0.39416    0.20644    0.91838   1.00
H2       0.35212    0.18179    0.90255   1.00
H2       0.39085    0.15504    0.92335   1.00
H2       0.53656    0.14689    0.87006   1.00
H2       0.52381    0.10226    0.89263   1.00
H2       0.50834    0.11216    0.84497   1.00
H2       0.49044    0.12901    0.94931   1.00
H2       0.50622    0.17593    0.93513   1.00
H2       0.45657    0.16720    0.94618   1.00
C4       0.24960    -0.02084   0.75302   1.00
C4       0.25019    0.02088    0.75259   1.00
C3       0.26411    -0.04364   0.78442   1.00
C3       0.26850    0.04384    0.78182   1.00
C3       0.23425    -0.04123   0.72009   1.00
C3       0.23143    0.04114    0.72140   1.00
C2       0.24913    -0.10512   0.75083   1.00
C2       0.25087    0.10512    0.74917   1.00
C3       0.26410    -0.08462   0.78329   1.00
C3       0.26853    0.08481    0.78038   1.00
C3       0.23383    -0.08258   0.71983   1.00
C3       0.23324    0.08238    0.71961   1.00
H1       0.27499    -0.03115   0.80910   1.00
H1       0.28257    0.03148    0.80490   1.00
C5       0.21926    -0.02020   0.68773   1.00
C5       0.21128    0.02020    0.69197   1.00
H1       0.27524    -0.09955   0.80675   1.00
H1       0.28194    0.09990    0.80251   1.00
H1       0.22174    -0.09680   0.69649   1.00
H1       0.22184    0.09632    0.69582   1.00
O3       0.21058    -0.03961   0.65360   1.00
O3       0.18665    0.03901    0.66615   1.00
Si1      0.24322    -0.04247   0.61900   1.00
Si1      0.14159    0.04721    0.67918   1.00
C6       0.21759    -0.07538   0.58877   1.00
C6       0.24669    0.00402    0.59724   1.00
C6       0.28796    -0.06253   0.63480   1.00
C6       0.12691    0.03307    0.72658   1.00
C6       0.13717    0.09802    0.67440   1.00
C6       0.11132    0.02523    0.64393   1.00
C6       0.19972    -0.11194   0.60968   1.00
H2       0.19259    -0.05791   0.57950   1.00
C6       0.23631    -0.09147   0.55017   1.00
H2       0.21807    0.01642    0.60361   1.00
C6       0.27706    0.03366    0.61408   1.00
C6       0.25137    0.00664    0.55188   1.00
H2       0.27842    -0.08831   0.65098   1.00
C6       0.31665    -0.07772   0.60259   1.00
C6       0.31476    -0.03849   0.66323   1.00
C6       0.13192    -0.01071   0.73844   1.00
C6       0.14033    0.05775    0.76264   1.00
H2       0.09544    0.03788    0.72559   1.00
H2       0.15506    0.10949    0.69811   1.00
C6       0.15450    0.11622    0.63623   1.00
C6       0.09559    0.11607    0.67972   1.00
H2       0.11081    0.04625    0.61999   1.00
C6       0.12668    -0.01336   0.62537   1.00
C6       0.06761    0.01756    0.65487   1.00
H2       0.18067    -0.10346   0.63379   1.00
H2       0.22256    -0.13090   0.62135   1.00
H2       0.18190    -0.12917   0.58960   1.00
H2       0.21368    -0.09608   0.52815   1.00
H2       0.25783    -0.07178   0.53771   1.00
H2       0.25058    -0.11964   0.55449   1.00
H2       0.27071    0.06328    0.60402   1.00
H2       0.27643    0.03468    0.64580   1.00
H2       0.30663    0.02648    0.60466   1.00
H2       0.22780    -0.00862   0.53685   1.00
H2       0.25016    0.03692    0.54182   1.00
H2       0.27930    -0.00550   0.54247   1.00
H2       0.32258    -0.05514   0.58089   1.00
H2       0.34461    -0.08708   0.61485   1.00
H2       0.30504    -0.10332   0.58794   1.00
H2       0.33447    -0.01902   0.64752   1.00
H2       0.29862    -0.02068   0.68375   1.00
H2       0.33291    -0.05828   0.68049   1.00
H2       0.16144    -0.01688   0.74848   1.00
H2       0.11220    -0.01809   0.76242   1.00
H2       0.12523    -0.03048   0.71451   1.00
H2       0.12457    0.04875    0.78891   1.00
H2       0.17127    0.05426    0.76880   1.00
H2       0.13434    0.08878    0.75886   1.00
H2       0.15640    0.14798    0.63890   1.00
H2       0.18407    0.10565    0.63068   1.00
H2       0.13665    0.10965    0.61070   1.00
H2       0.08162    0.10584    0.70644   1.00
H2       0.09745    0.14788    0.68179   1.00
H2       0.07665    0.10915    0.65504   1.00
H2       0.12994    -0.03656   0.64689   1.00
H2       0.10737    -0.02381   0.60226   1.00
H2       0.15503    -0.00834   0.61216   1.00
H2       0.05069    0.00956    0.62901   1.00
H2       0.06487    -0.00622   0.67593   1.00
H2       0.05382    0.04343    0.66720   1.00
C4       0.25302    0.24960    0.47916   1.00
C4       0.25259    0.25019    0.52088   1.00
C3       0.28442    0.26411    0.45636   1.00
C3       0.28182    0.26850    0.54384   1.00
C3       0.22009    0.23425    0.45877   1.00
C3       0.22140    0.23143    0.54114   1.00
C2       0.25083    0.24913    0.39488   1.00
C2       0.24917    0.25087    0.60512   1.00
C3       0.28329    0.26410    0.41538   1.00
C3       0.28038    0.26853    0.58481   1.00
C3       0.21983    0.23383    0.41742   1.00
C3       0.21961    0.23324    0.58238   1.00
H1       0.30910    0.27499    0.46885   1.00
H1       0.30490    0.28257    0.53148   1.00
C5       0.18773    0.21926    0.47980   1.00
C5       0.19197    0.21128    0.52020   1.00
H1       0.30675    0.27524    0.40045   1.00
H1       0.30251    0.28194    0.59990   1.00
H1       0.19649    0.22174    0.40320   1.00
H1       0.19582    0.22184    0.59632   1.00
O3       0.15360    0.21058    0.46039   1.00
O3       0.16615    0.18665    0.53901   1.00
Si1      0.11900    0.24322    0.45753   1.00
Si1      0.17918    0.14159    0.54721   1.00
C6       0.08877    0.21759    0.42462   1.00
C6       0.09724    0.24669    0.50402   1.00
C6       0.13480    0.28796    0.43747   1.00
C6       0.22658    0.12691    0.53307   1.00
C6       0.17440    0.13717    0.59802   1.00
C6       0.14393    0.11132    0.52523   1.00
C6       0.10968    0.19972    0.38806   1.00
H2       0.07950    0.19259    0.44209   1.00
C6       0.05017    0.23631    0.40853   1.00
H2       0.10361    0.21807    0.51642   1.00
C6       0.11408    0.27706    0.53366   1.00
C6       0.05188    0.25137    0.50664   1.00
H2       0.15098    0.27842    0.41169   1.00
C6       0.10259    0.31665    0.42228   1.00
C6       0.16323    0.31476    0.46151   1.00
C6       0.23844    0.13192    0.48929   1.00
C6       0.26264    0.14033    0.55775   1.00
H2       0.22559    0.09544    0.53788   1.00
H2       0.19811    0.15506    0.60949   1.00
C6       0.13623    0.15450    0.61622   1.00
C6       0.17972    0.09559    0.61607   1.00
H2       0.11999    0.11081    0.54625   1.00
C6       0.12537    0.12668    0.48664   1.00
C6       0.15487    0.06761    0.51756   1.00
H2       0.13379    0.18067    0.39654   1.00
H2       0.12135    0.22256    0.36910   1.00
H2       0.08960    0.18190    0.37083   1.00
H2       0.02815    0.21368    0.40392   1.00
H2       0.03771    0.25783    0.42822   1.00
H2       0.05449    0.25058    0.38036   1.00
H2       0.10402    0.27071    0.56328   1.00
H2       0.14580    0.27643    0.53468   1.00
H2       0.10466    0.30663    0.52648   1.00
H2       0.03685    0.22780    0.49138   1.00
H2       0.04182    0.25016    0.53692   1.00
H2       0.04247    0.27930    0.49450   1.00
H2       0.08089    0.32258    0.44486   1.00
H2       0.11485    0.34461    0.41292   1.00
H2       0.08794    0.30504    0.39668   1.00
H2       0.14752    0.33447    0.48098   1.00
H2       0.18375    0.29862    0.47932   1.00
H2       0.18049    0.33291    0.44172   1.00
H2       0.24848    0.16144    0.48312   1.00
H2       0.26242    0.11220    0.48191   1.00
H2       0.21451    0.12523    0.46952   1.00
H2       0.28891    0.12457    0.54875   1.00
H2       0.26880    0.17127    0.55426   1.00
H2       0.25886    0.13434    0.58878   1.00
H2       0.13890    0.15640    0.64798   1.00
H2       0.13068    0.18407    0.60565   1.00
H2       0.11070    0.13665    0.60965   1.00
H2       0.20644    0.08162    0.60584   1.00
H2       0.18179    0.09745    0.64788   1.00
H2       0.15504    0.07665    0.60915   1.00
H2       0.14689    0.12994    0.46344   1.00
H2       0.10226    0.10737    0.47619   1.00
H2       0.11216    0.15503    0.49166   1.00
H2       0.12901    0.05069    0.50956   1.00
H2       0.17593    0.06487    0.49378   1.00
H2       0.16720    0.05382    0.54343   1.00
C4       0.25302    0.75040    0.52084   1.00
C4       0.25259    0.74981    0.47912   1.00
C3       0.28442    0.73589    0.54364   1.00
C3       0.28182    0.73150    0.45616   1.00
C3       0.22009    0.76575    0.54123   1.00
C3       0.22140    0.76857    0.45886   1.00
C2       0.25083    0.75087    0.60512   1.00
C2       0.24917    0.74913    0.39488   1.00
C3       0.28329    0.73590    0.58462   1.00
C3       0.28038    0.73147    0.41519   1.00
C3       0.21983    0.76617    0.58258   1.00
C3       0.21961    0.76676    0.41762   1.00
H1       0.30910    0.72501    0.53115   1.00
H1       0.30490    0.71743    0.46852   1.00
C5       0.18773    0.78074    0.52020   1.00
C5       0.19197    0.78872    0.47980   1.00
H1       0.30675    0.72476    0.59955   1.00
H1       0.30251    0.71806    0.40010   1.00
H1       0.19649    0.77826    0.59680   1.00
H1       0.19582    0.77816    0.40368   1.00
O3       0.15360    0.78942    0.53961   1.00
O3       0.16615    0.81335    0.46099   1.00
Si1      0.11900    0.75678    0.54247   1.00
Si1      0.17918    0.85841    0.45279   1.00
C6       0.08877    0.78241    0.57538   1.00
C6       0.09724    0.75331    0.49598   1.00
C6       0.13480    0.71204    0.56253   1.00
C6       0.22658    0.87309    0.46693   1.00
C6       0.17440    0.86283    0.40198   1.00
C6       0.14393    0.88868    0.47477   1.00
C6       0.10968    0.80028    0.61194   1.00
H2       0.07950    0.80741    0.55791   1.00
C6       0.05017    0.76369    0.59147   1.00
H2       0.10361    0.78193    0.48358   1.00
C6       0.11408    0.72294    0.46634   1.00
C6       0.05188    0.74863    0.49336   1.00
H2       0.15098    0.72158    0.58831   1.00
C6       0.10259    0.68335    0.57772   1.00
C6       0.16323    0.68524    0.53849   1.00
C6       0.23844    0.86808    0.51071   1.00
C6       0.26264    0.85967    0.44225   1.00
H2       0.22559    0.90456    0.46212   1.00
H2       0.19811    0.84494    0.39051   1.00
C6       0.13623    0.84550    0.38378   1.00
C6       0.17972    0.90441    0.38393   1.00
H2       0.11999    0.88919    0.45375   1.00
C6       0.12537    0.87332    0.51336   1.00
C6       0.15487    0.93239    0.48244   1.00
H2       0.13379    0.81933    0.60346   1.00
H2       0.12135    0.77744    0.63090   1.00
H2       0.08960    0.81810    0.62917   1.00
H2       0.02815    0.78632    0.59608   1.00
H2       0.03771    0.74217    0.57178   1.00
H2       0.05449    0.74942    0.61964   1.00
H2       0.10402    0.72929    0.43672   1.00
H2       0.14580    0.72357    0.46532   1.00
H2       0.10466    0.69337    0.47352   1.00
H2       0.03685    0.77220    0.50862   1.00
H2       0.04182    0.74984    0.46308   1.00
H2       0.04247    0.72070    0.50550   1.00
H2       0.08089    0.67742    0.55514   1.00
H2       0.11485    0.65539    0.58708   1.00
H2       0.08794    0.69496    0.60332   1.00
H2       0.14752    0.66553    0.51902   1.00
H2       0.18375    0.70138    0.52068   1.00
H2       0.18049    0.66709    0.55828   1.00
H2       0.24848    0.83856    0.51688   1.00
H2       0.26242    0.88780    0.51809   1.00
H2       0.21451    0.87477    0.53048   1.00
H2       0.28891    0.87543    0.45125   1.00
H2       0.26880    0.82873    0.44574   1.00
H2       0.25886    0.86566    0.41122   1.00
H2       0.13890    0.84360    0.35202   1.00
H2       0.13068    0.81593    0.39435   1.00
H2       0.11070    0.86335    0.39035   1.00
H2       0.20644    0.91838    0.39416   1.00
H2       0.18179    0.90255    0.35212   1.00
H2       0.15504    0.92335    0.39085   1.00
H2       0.14689    0.87006    0.53656   1.00
H2       0.10226    0.89263    0.52381   1.00
H2       0.11216    0.84497    0.50834   1.00
H2       0.12901    0.94931    0.49044   1.00
H2       0.17593    0.93513    0.50622   1.00
H2       0.16720    0.94618    0.45657   1.00
C4       0.25040    1.02084    0.25302   1.00
C4       0.24981    0.97912    0.25259   1.00
C3       0.23589    1.04364    0.28442   1.00
C3       0.23150    0.95616    0.28182   1.00
C3       0.26575    1.04123    0.22009   1.00
C3       0.26857    0.95886    0.22140   1.00
C2       0.25087    1.10512    0.25083   1.00
C2       0.24913    0.89488    0.24917   1.00
C3       0.23590    1.08462    0.28329   1.00
C3       0.23147    0.91519    0.28038   1.00
C3       0.26617    1.08258    0.21983   1.00
C3       0.26676    0.91762    0.21961   1.00
H1       0.22501    1.03115    0.30910   1.00
H1       0.21743    0.96852    0.30490   1.00
C5       0.28074    1.02020    0.18773   1.00
C5       0.28872    0.97980    0.19197   1.00
H1       0.22476    1.09955    0.30675   1.00
H1       0.21806    0.90010    0.30251   1.00
H1       0.27826    1.09680    0.19649   1.00
H1       0.27816    0.90368    0.19582   1.00
O3       0.28942    1.03961    0.15360   1.00
O3       0.31335    0.96099    0.16615   1.00
Si1      0.25678    1.04247    0.11900   1.00
Si1      0.35841    0.95279    0.17918   1.00
C6       0.28241    1.07538    0.08877   1.00
C6       0.25331    0.99598    0.09724   1.00
C6       0.21204    1.06253    0.13480   1.00
C6       0.37309    0.96693    0.22658   1.00
C6       0.36283    0.90198    0.17440   1.00
C6       0.38868    0.97477    0.14393   1.00
C6       0.30028    1.11194    0.10968   1.00
H2       0.30741    1.05791    0.07950   1.00
C6       0.26369    1.09147    0.05017   1.00
H2       0.28193    0.98358    0.10361   1.00
C6       0.22294    0.96634    0.11408   1.00
C6       0.24863    0.99336    0.05188   1.00
H2       0.22158    1.08831    0.15098   1.00
C6       0.18335    1.07772    0.10259   1.00
C6       0.18524    1.03849    0.16323   1.00
C6       0.36808    1.01071    0.23844   1.00
C6       0.35967    0.94225    0.26264   1.00
H2       0.40456    0.96212    0.22559   1.00
H2       0.34494    0.89051    0.19811   1.00
C6       0.34550    0.88378    0.13623   1.00
C6       0.40441    0.88393    0.17972   1.00
H2       0.38919    0.95375    0.11999   1.00
C6       0.37332    1.01336    0.12537   1.00
C6       0.43239    0.98244    0.15487   1.00
H2       0.31933    1.10346    0.13379   1.00
H2       0.27744    1.13090    0.12135   1.00
H2       0.31810    1.12917    0.08960   1.00
H2       0.28632    1.09608    0.02815   1.00
H2       0.24217    1.07178    0.03771   1.00
H2       0.24942    1.11964    0.05449   1.00
H2       0.22929    0.93672    0.10402   1.00
H2       0.22357    0.96532    0.14580   1.00
H2       0.19337    0.97352    0.10466   1.00
H2       0.27220    1.00862    0.03685   1.00
H2       0.24984    0.96308    0.04182   1.00
H2       0.22070    1.00550    0.04247   1.00
H2       0.17742    1.05514    0.08089   1.00
H2       0.15539    1.08708    0.11485   1.00
H2       0.19496    1.10332    0.08794   1.00
H2       0.16553    1.01902    0.14752   1.00
H2       0.20138    1.02068    0.18375   1.00
H2       0.16709    1.05828    0.18049   1.00
H2       0.33856    1.01688    0.24848   1.00
H2       0.38780    1.01809    0.26242   1.00
H2       0.37477    1.03048    0.21451   1.00
H2       0.37543    0.95125    0.28891   1.00
H2       0.32873    0.94574    0.26880   1.00
H2       0.36566    0.91122    0.25886   1.00
H2       0.34360    0.85202    0.13890   1.00
H2       0.31593    0.89435    0.13068   1.00
H2       0.36335    0.89035    0.11070   1.00
H2       0.41838    0.89416    0.20644   1.00
H2       0.40255    0.85212    0.18179   1.00
H2       0.42335    0.89085    0.15504   1.00
H2       0.37006    1.03656    0.14689   1.00
H2       0.39263    1.02381    0.10226   1.00
H2       0.34497    1.00834    0.11216   1.00
H2       0.44931    0.99044    0.12901   1.00
H2       0.43513    1.00622    0.17593   1.00
H2       0.44618    0.95657    0.16720   1.00
C4       -0.02084   0.75302    0.24960   1.00
C4       0.02088    0.75259    0.25019   1.00
C3       -0.04364   0.78442    0.26411   1.00
C3       0.04384    0.78182    0.26850   1.00
C3       -0.04123   0.72009    0.23425   1.00
C3       0.04114    0.72140    0.23143   1.00
C2       -0.10512   0.75083    0.24913   1.00
C2       0.10512    0.74917    0.25087   1.00
C3       -0.08462   0.78329    0.26410   1.00
C3       0.08481    0.78038    0.26853   1.00
C3       -0.08258   0.71983    0.23383   1.00
C3       0.08238    0.71961    0.23324   1.00
H1       -0.03115   0.80910    0.27499   1.00
H1       0.03148    0.80490    0.28257   1.00
C5       -0.02020   0.68773    0.21926   1.00
C5       0.02020    0.69197    0.21128   1.00
H1       -0.09955   0.80675    0.27524   1.00
H1       0.09990    0.80251    0.28194   1.00
H1       -0.09680   0.69649    0.22174   1.00
H1       0.09632    0.69582    0.22184   1.00
O3       -0.03961   0.65360    0.21058   1.00
O3       0.03901    0.66615    0.18665   1.00
Si1      -0.04247   0.61900    0.24322   1.00
Si1      0.04721    0.67918    0.14159   1.00
C6       -0.07538   0.58877    0.21759   1.00
C6       0.00402    0.59724    0.24669   1.00
C6       -0.06253   0.63480    0.28796   1.00
C6       0.03307    0.72658    0.12691   1.00
C6       0.09802    0.67440    0.13717   1.00
C6       0.02523    0.64393    0.11132   1.00
C6       -0.11194   0.60968    0.19972   1.00
H2       -0.05791   0.57950    0.19259   1.00
C6       -0.09147   0.55017    0.23631   1.00
H2       0.01642    0.60361    0.21807   1.00
C6       0.03366    0.61408    0.27706   1.00
C6       0.00664    0.55188    0.25137   1.00
H2       -0.08831   0.65098    0.27842   1.00
C6       -0.07772   0.60259    0.31665   1.00
C6       -0.03849   0.66323    0.31476   1.00
C6       -0.01071   0.73844    0.13192   1.00
C6       0.05775    0.76264    0.14033   1.00
H2       0.03788    0.72559    0.09544   1.00
H2       0.10949    0.69811    0.15506   1.00
C6       0.11622    0.63623    0.15450   1.00
C6       0.11607    0.67972    0.09559   1.00
H2       0.04625    0.61999    0.11081   1.00
C6       -0.01336   0.62537    0.12668   1.00
C6       0.01756    0.65487    0.06761   1.00
H2       -0.10346   0.63379    0.18067   1.00
H2       -0.13090   0.62135    0.22256   1.00
H2       -0.12917   0.58960    0.18190   1.00
H2       -0.09608   0.52815    0.21368   1.00
H2       -0.07178   0.53771    0.25783   1.00
H2       -0.11964   0.55449    0.25058   1.00
H2       0.06328    0.60402    0.27071   1.00
H2       0.03468    0.64580    0.27643   1.00
H2       0.02648    0.60466    0.30663   1.00
H2       -0.00862   0.53685    0.22780   1.00
H2       0.03692    0.54182    0.25016   1.00
H2       -0.00550   0.54247    0.27930   1.00
H2       -0.05514   0.58089    0.32258   1.00
H2       -0.08708   0.61485    0.34461   1.00
H2       -0.10332   0.58794    0.30504   1.00
H2       -0.01902   0.64752    0.33447   1.00
H2       -0.02068   0.68375    0.29862   1.00
H2       -0.05828   0.68049    0.33291   1.00
H2       -0.01688   0.74848    0.16144   1.00
H2       -0.01809   0.76242    0.11220   1.00
H2       -0.03048   0.71451    0.12523   1.00
H2       0.04875    0.78891    0.12457   1.00
H2       0.05426    0.76880    0.17127   1.00
H2       0.08878    0.75886    0.13434   1.00
H2       0.14798    0.63890    0.15640   1.00
H2       0.10565    0.63068    0.18407   1.00
H2       0.10965    0.61070    0.13665   1.00
H2       0.10584    0.70644    0.08162   1.00
H2       0.14788    0.68179    0.09745   1.00
H2       0.10915    0.65504    0.07665   1.00
H2       -0.03656   0.64689    0.12994   1.00
H2       -0.02381   0.60226    0.10737   1.00
H2       -0.00834   0.61216    0.15503   1.00
H2       0.00956    0.62901    0.05069   1.00
H2       -0.00622   0.67593    0.06487   1.00
H2       0.04343    0.66720    0.05382   1.00
C4       0.52084    0.75302    0.25040   1.00
C4       0.47912    0.75259    0.24981   1.00
C3       0.54364    0.78442    0.23589   1.00
C3       0.45616    0.78182    0.23150   1.00
C3       0.54123    0.72009    0.26575   1.00
C3       0.45886    0.72140    0.26857   1.00
C2       0.60512    0.75083    0.25087   1.00
C2       0.39488    0.74917    0.24913   1.00
C3       0.58462    0.78329    0.23590   1.00
C3       0.41519    0.78038    0.23147   1.00
C3       0.58258    0.71983    0.26617   1.00
C3       0.41762    0.71961    0.26676   1.00
H1       0.53115    0.80910    0.22501   1.00
H1       0.46852    0.80490    0.21743   1.00
C5       0.52020    0.68773    0.28074   1.00
C5       0.47980    0.69197    0.28872   1.00
H1       0.59955    0.80675    0.22476   1.00
H1       0.40010    0.80251    0.21806   1.00
H1       0.59680    0.69649    0.27826   1.00
H1       0.40368    0.69582    0.27816   1.00
O3       0.53961    0.65360    0.28942   1.00
O3       0.46099    0.66615    0.31335   1.00
Si1      0.54247    0.61900    0.25678   1.00
Si1      0.45279    0.67918    0.35841   1.00
C6       0.57538    0.58877    0.28241   1.00
C6       0.49598    0.59724    0.25331   1.00
C6       0.56253    0.63480    0.21204   1.00
C6       0.46693    0.72658    0.37309   1.00
C6       0.40198    0.67440    0.36283   1.00
C6       0.47477    0.64393    0.38868   1.00
C6       0.61194    0.60968    0.30028   1.00
H2       0.55791    0.57950    0.30741   1.00
C6       0.59147    0.55017    0.26369   1.00
H2       0.48358    0.60361    0.28193   1.00
C6       0.46634    0.61408    0.22294   1.00
C6       0.49336    0.55188    0.24863   1.00
H2       0.58831    0.65098    0.22158   1.00
C6       0.57772    0.60259    0.18335   1.00
C6       0.53849    0.66323    0.18524   1.00
C6       0.51071    0.73844    0.36808   1.00
C6       0.44225    0.76264    0.35967   1.00
H2       0.46212    0.72559    0.40456   1.00
H2       0.39051    0.69811    0.34494   1.00
C6       0.38378    0.63623    0.34550   1.00
C6       0.38393    0.67972    0.40441   1.00
H2       0.45375    0.61999    0.38919   1.00
C6       0.51336    0.62537    0.37332   1.00
C6       0.48244    0.65487    0.43239   1.00
H2       0.60346    0.63379    0.31933   1.00
H2       0.63090    0.62135    0.27744   1.00
H2       0.62917    0.58960    0.31810   1.00
H2       0.59608    0.52815    0.28632   1.00
H2       0.57178    0.53771    0.24217   1.00
H2       0.61964    0.55449    0.24942   1.00
H2       0.43672    0.60402    0.22929   1.00
H2       0.46532    0.64580    0.22357   1.00
H2       0.47352    0.60466    0.19337   1.00
H2       0.50862    0.53685    0.27220   1.00
H2       0.46308    0.54182    0.24984   1.00
H2       0.50550    0.54247    0.22070   1.00
H2       0.55514    0.58089    0.17742   1.00
H2       0.58708    0.61485    0.15539   1.00
H2       0.60332    0.58794    0.19496   1.00
H2       0.51902    0.64752    0.16553   1.00
H2       0.52068    0.68375    0.20138   1.00
H2       0.55828    0.68049    0.16709   1.00
H2       0.51688    0.74848    0.33856   1.00
H2       0.51809    0.76242    0.38780   1.00
H2       0.53048    0.71451    0.37477   1.00
H2       0.45125    0.78891    0.37543   1.00
H2       0.44574    0.76880    0.32873   1.00
H2       0.41122    0.75886    0.36566   1.00
H2       0.35202    0.63890    0.34360   1.00
H2       0.39435    0.63068    0.31593   1.00
H2       0.39035    0.61070    0.36335   1.00
H2       0.39416    0.70644    0.41838   1.00
H2       0.35212    0.68179    0.40255   1.00
H2       0.39085    0.65504    0.42335   1.00
H2       0.53656    0.64689    0.37006   1.00
H2       0.52381    0.60226    0.39263   1.00
H2       0.50834    0.61216    0.34497   1.00
H2       0.49044    0.62901    0.44931   1.00
H2       0.50622    0.67593    0.43513   1.00
H2       0.45657    0.66720    0.44618   1.00
C4       0.24960    0.47916    0.25302   1.00
C4       0.25019    0.52088    0.25259   1.00
C3       0.26411    0.45636    0.28442   1.00
C3       0.26850    0.54384    0.28182   1.00
C3       0.23425    0.45877    0.22009   1.00
C3       0.23143    0.54114    0.22140   1.00
C2       0.24913    0.39488    0.25083   1.00
C2       0.25087    0.60512    0.24917   1.00
C3       0.26410    0.41538    0.28329   1.00
C3       0.26853    0.58481    0.28038   1.00
C3       0.23383    0.41742    0.21983   1.00
C3       0.23324    0.58238    0.21961   1.00
H1       0.27499    0.46885    0.30910   1.00
H1       0.28257    0.53148    0.30490   1.00
C5       0.21926    0.47980    0.18773   1.00
C5       0.21128    0.52020    0.19197   1.00
H1       0.27524    0.40045    0.30675   1.00
H1       0.28194    0.59990    0.30251   1.00
H1       0.22174    0.40320    0.19649   1.00
H1       0.22184    0.59632    0.19582   1.00
O3       0.21058    0.46039    0.15360   1.00
O3       0.18665    0.53901    0.16615   1.00
Si1      0.24322    0.45753    0.11900   1.00
Si1      0.14159    0.54721    0.17918   1.00
C6       0.21759    0.42462    0.08877   1.00
C6       0.24669    0.50402    0.09724   1.00
C6       0.28796    0.43747    0.13480   1.00
C6       0.12691    0.53307    0.22658   1.00
C6       0.13717    0.59802    0.17440   1.00
C6       0.11132    0.52523    0.14393   1.00
C6       0.19972    0.38806    0.10968   1.00
H2       0.19259    0.44209    0.07950   1.00
C6       0.23631    0.40853    0.05017   1.00
H2       0.21807    0.51642    0.10361   1.00
C6       0.27706    0.53366    0.11408   1.00
C6       0.25137    0.50664    0.05188   1.00
H2       0.27842    0.41169    0.15098   1.00
C6       0.31665    0.42228    0.10259   1.00
C6       0.31476    0.46151    0.16323   1.00
C6       0.13192    0.48929    0.23844   1.00
C6       0.14033    0.55775    0.26264   1.00
H2       0.09544    0.53788    0.22559   1.00
H2       0.15506    0.60949    0.19811   1.00
C6       0.15450    0.61622    0.13623   1.00
C6       0.09559    0.61607    0.17972   1.00
H2       0.11081    0.54625    0.11999   1.00
C6       0.12668    0.48664    0.12537   1.00
C6       0.06761    0.51756    0.15487   1.00
H2       0.18067    0.39654    0.13379   1.00
H2       0.22256    0.36910    0.12135   1.00
H2       0.18190    0.37083    0.08960   1.00
H2       0.21368    0.40392    0.02815   1.00
H2       0.25783    0.42822    0.03771   1.00
H2       0.25058    0.38036    0.05449   1.00
H2       0.27071    0.56328    0.10402   1.00
H2       0.27643    0.53468    0.14580   1.00
H2       0.30663    0.52648    0.10466   1.00
H2       0.22780    0.49138    0.03685   1.00
H2       0.25016    0.53692    0.04182   1.00
H2       0.27930    0.49450    0.04247   1.00
H2       0.32258    0.44486    0.08089   1.00
H2       0.34461    0.41292    0.11485   1.00
H2       0.30504    0.39668    0.08794   1.00
H2       0.33447    0.48098    0.14752   1.00
H2       0.29862    0.47932    0.18375   1.00
H2       0.33291    0.44172    0.18049   1.00
H2       0.16144    0.48312    0.24848   1.00
H2       0.11220    0.48191    0.26242   1.00
H2       0.12523    0.46952    0.21451   1.00
H2       0.12457    0.54875    0.28891   1.00
H2       0.17127    0.55426    0.26880   1.00
H2       0.13434    0.58878    0.25886   1.00
H2       0.15640    0.64798    0.13890   1.00
H2       0.18407    0.60565    0.13068   1.00
H2       0.13665    0.60965    0.11070   1.00
H2       0.08162    0.60584    0.20644   1.00
H2       0.09745    0.64788    0.18179   1.00
H2       0.07665    0.60915    0.15504   1.00
H2       0.12994    0.46344    0.14689   1.00
H2       0.10737    0.47619    0.10226   1.00
H2       0.15503    0.49166    0.11216   1.00
H2       0.05069    0.50956    0.12901   1.00
H2       0.06487    0.49378    0.17593   1.00
H2       0.05382    0.54343    0.16720   1.00
C4       0.25302    0.74960    -0.02084   1.00
C4       0.25259    0.75019    0.02088   1.00
C3       0.28442    0.76411    -0.04364   1.00
C3       0.28182    0.76850    0.04384   1.00
C3       0.22009    0.73425    -0.04123   1.00
C3       0.22140    0.73143    0.04114   1.00
C2       0.25083    0.74913    -0.10512   1.00
C2       0.24917    0.75087    0.10512   1.00
C3       0.28329    0.76410    -0.08462   1.00
C3       0.28038    0.76853    0.08481   1.00
C3       0.21983    0.73383    -0.08258   1.00
C3       0.21961    0.73324    0.08238   1.00
H1       0.30910    0.77499    -0.03115   1.00
H1       0.30490    0.78257    0.03148   1.00
C5       0.18773    0.71926    -0.02020   1.00
C5       0.19197    0.71128    0.02020   1.00
H1       0.30675    0.77524    -0.09955   1.00
H1       0.30251    0.78194    0.09990   1.00
H1       0.19649    0.72174    -0.09680   1.00
H1       0.19582    0.72184    0.09632   1.00
O3       0.15360    0.71058    -0.03961   1.00
O3       0.16615    0.68665    0.03901   1.00
Si1      0.11900    0.74322    -0.04247   1.00
Si1      0.17918    0.64159    0.04721   1.00
C6       0.08877    0.71759    -0.07538   1.00
C6       0.09724    0.74669    0.00402   1.00
C6       0.13480    0.78796    -0.06253   1.00
C6       0.22658    0.62691    0.03307   1.00
C6       0.17440    0.63717    0.09802   1.00
C6       0.14393    0.61132    0.02523   1.00
C6       0.10968    0.69972    -0.11194   1.00
H2       0.07950    0.69259    -0.05791   1.00
C6       0.05017    0.73631    -0.09147   1.00
H2       0.10361    0.71807    0.01642   1.00
C6       0.11408    0.77706    0.03366   1.00
C6       0.05188    0.75137    0.00664   1.00
H2       0.15098    0.77842    -0.08831   1.00
C6       0.10259    0.81665    -0.07772   1.00
C6       0.16323    0.81476    -0.03849   1.00
C6       0.23844    0.63192    -0.01071   1.00
C6       0.26264    0.64033    0.05775   1.00
H2       0.22559    0.59544    0.03788   1.00
H2       0.19811    0.65506    0.10949   1.00
C6       0.13623    0.65450    0.11622   1.00
C6       0.17972    0.59559    0.11607   1.00
H2       0.11999    0.61081    0.04625   1.00
C6       0.12537    0.62668    -0.01336   1.00
C6       0.15487    0.56761    0.01756   1.00
H2       0.13379    0.68067    -0.10346   1.00
H2       0.12135    0.72256    -0.13090   1.00
H2       0.08960    0.68190    -0.12917   1.00
H2       0.02815    0.71368    -0.09608   1.00
H2       0.03771    0.75783    -0.07178   1.00
H2       0.05449    0.75058    -0.11964   1.00
H2       0.10402    0.77071    0.06328   1.00
H2       0.14580    0.77643    0.03468   1.00
H2       0.10466    0.80663    0.02648   1.00
H2       0.03685    0.72780    -0.00862   1.00
H2       0.04182    0.75016    0.03692   1.00
H2       0.04247    0.77930    -0.00550   1.00
H2       0.08089    0.82258    -0.05514   1.00
H2       0.11485    0.84461    -0.08708   1.00
H2       0.08794    0.80504    -0.10332   1.00
H2       0.14752    0.83447    -0.01902   1.00
H2       0.18375    0.79862    -0.02068   1.00
H2       0.18049    0.83291    -0.05828   1.00
H2       0.24848    0.66144    -0.01688   1.00
H2       0.26242    0.61220    -0.01809   1.00
H2       0.21451    0.62523    -0.03048   1.00
H2       0.28891    0.62457    0.04875   1.00
H2       0.26880    0.67127    0.05426   1.00
H2       0.25886    0.63434    0.08878   1.00
H2       0.13890    0.65640    0.14798   1.00
H2       0.13068    0.68407    0.10565   1.00
H2       0.11070    0.63665    0.10965   1.00
H2       0.20644    0.58162    0.10584   1.00
H2       0.18179    0.59745    0.14788   1.00
H2       0.15504    0.57665    0.10915   1.00
H2       0.14689    0.62994    -0.03656   1.00
H2       0.10226    0.60737    -0.02381   1.00
H2       0.11216    0.65503    -0.00834   1.00
H2       0.12901    0.55069    0.00956   1.00
H2       0.17593    0.56487    -0.00622   1.00
H2       0.16720    0.55382    0.04343   1.00
C4       0.75302    0.25040    0.52084   1.00
C4       0.75259    0.24981    0.47912   1.00
C3       0.78442    0.23589    0.54364   1.00
C3       0.78182    0.23150    0.45616   1.00
C3       0.72009    0.26575    0.54123   1.00
C3       0.72140    0.26857    0.45886   1.00
C2       0.75083    0.25087    0.60512   1.00
C2       0.74917    0.24913    0.39488   1.00
C3       0.78329    0.23590    0.58462   1.00
C3       0.78038    0.23147    0.41519   1.00
C3       0.71983    0.26617    0.58258   1.00
C3       0.71961    0.26676    0.41762   1.00
H1       0.80910    0.22501    0.53115   1.00
H1       0.80490    0.21743    0.46852   1.00
C5       0.68773    0.28074    0.52020   1.00
C5       0.69197    0.28872    0.47980   1.00
H1       0.80675    0.22476    0.59955   1.00
H1       0.80251    0.21806    0.40010   1.00
H1       0.69649    0.27826    0.59680   1.00
H1       0.69582    0.27816    0.40368   1.00
O3       0.65360    0.28942    0.53961   1.00
O3       0.66615    0.31335    0.46099   1.00
Si1      0.61900    0.25678    0.54247   1.00
Si1      0.67918    0.35841    0.45279   1.00
C6       0.58877    0.28241    0.57538   1.00
C6       0.59724    0.25331    0.49598   1.00
C6       0.63480    0.21204    0.56253   1.00
C6       0.72658    0.37309    0.46693   1.00
C6       0.67440    0.36283    0.40198   1.00
C6       0.64393    0.38868    0.47477   1.00
C6       0.60968    0.30028    0.61194   1.00
H2       0.57950    0.30741    0.55791   1.00
C6       0.55017    0.26369    0.59147   1.00
H2       0.60361    0.28193    0.48358   1.00
C6       0.61408    0.22294    0.46634   1.00
C6       0.55188    0.24863    0.49336   1.00
H2       0.65098    0.22158    0.58831   1.00
C6       0.60259    0.18335    0.57772   1.00
C6       0.66323    0.18524    0.53849   1.00
C6       0.73844    0.36808    0.51071   1.00
C6       0.76264    0.35967    0.44225   1.00
H2       0.72559    0.40456    0.46212   1.00
H2       0.69811    0.34494    0.39051   1.00
C6       0.63623    0.34550    0.38378   1.00
C6       0.67972    0.40441    0.38393   1.00
H2       0.61999    0.38919    0.45375   1.00
C6       0.62537    0.37332    0.51336   1.00
C6       0.65487    0.43239    0.48244   1.00
H2       0.63379    0.31933    0.60346   1.00
H2       0.62135    0.27744    0.63090   1.00
H2       0.58960    0.31810    0.62917   1.00
H2       0.52815    0.28632    0.59608   1.00
H2       0.53771    0.24217    0.57178   1.00
H2       0.55449    0.24942    0.61964   1.00
H2       0.60402    0.22929    0.43672   1.00
H2       0.64580    0.22357    0.46532   1.00
H2       0.60466    0.19337    0.47352   1.00
H2       0.53685    0.27220    0.50862   1.00
H2       0.54182    0.24984    0.46308   1.00
H2       0.54247    0.22070    0.50550   1.00
H2       0.58089    0.17742    0.55514   1.00
H2       0.61485    0.15539    0.58708   1.00
H2       0.58794    0.19496    0.60332   1.00
H2       0.64752    0.16553    0.51902   1.00
H2       0.68375    0.20138    0.52068   1.00
H2       0.68049    0.16709    0.55828   1.00
H2       0.74848    0.33856    0.51688   1.00
H2       0.76242    0.38780    0.51809   1.00
H2       0.71451    0.37477    0.53048   1.00
H2       0.78891    0.37543    0.45125   1.00
H2       0.76880    0.32873    0.44574   1.00
H2       0.75886    0.36566    0.41122   1.00
H2       0.63890    0.34360    0.35202   1.00
H2       0.63068    0.31593    0.39435   1.00
H2       0.61070    0.36335    0.39035   1.00
H2       0.70644    0.41838    0.39416   1.00
H2       0.68179    0.40255    0.35212   1.00
H2       0.65504    0.42335    0.39085   1.00
H2       0.64689    0.37006    0.53656   1.00
H2       0.60226    0.39263    0.52381   1.00
H2       0.61216    0.34497    0.50834   1.00
H2       0.62901    0.44931    0.49044   1.00
H2       0.67593    0.43513    0.50622   1.00
H2       0.66720    0.44618    0.45657   1.00
C4       0.75040    0.52084    0.25302   1.00
C4       0.74981    0.47912    0.25259   1.00
C3       0.73589    0.54364    0.28442   1.00
C3       0.73150    0.45616    0.28182   1.00
C3       0.76575    0.54123    0.22009   1.00
C3       0.76857    0.45886    0.22140   1.00
C2       0.75087    0.60512    0.25083   1.00
C2       0.74913    0.39488    0.24917   1.00
C3       0.73590    0.58462    0.28329   1.00
C3       0.73147    0.41519    0.28038   1.00
C3       0.76617    0.58258    0.21983   1.00
C3       0.76676    0.41762    0.21961   1.00
H1       0.72501    0.53115    0.30910   1.00
H1       0.71743    0.46852    0.30490   1.00
C5       0.78074    0.52020    0.18773   1.00
C5       0.78872    0.47980    0.19197   1.00
H1       0.72476    0.59955    0.30675   1.00
H1       0.71806    0.40010    0.30251   1.00
H1       0.77826    0.59680    0.19649   1.00
H1       0.77816    0.40368    0.19582   1.00
O3       0.78942    0.53961    0.15360   1.00
O3       0.81335    0.46099    0.16615   1.00
Si1      0.75678    0.54247    0.11900   1.00
Si1      0.85841    0.45279    0.17918   1.00
C6       0.78241    0.57538    0.08877   1.00
C6       0.75331    0.49598    0.09724   1.00
C6       0.71204    0.56253    0.13480   1.00
C6       0.87309    0.46693    0.22658   1.00
C6       0.86283    0.40198    0.17440   1.00
C6       0.88868    0.47477    0.14393   1.00
C6       0.80028    0.61194    0.10968   1.00
H2       0.80741    0.55791    0.07950   1.00
C6       0.76369    0.59147    0.05017   1.00
H2       0.78193    0.48358    0.10361   1.00
C6       0.72294    0.46634    0.11408   1.00
C6       0.74863    0.49336    0.05188   1.00
H2       0.72158    0.58831    0.15098   1.00
C6       0.68335    0.57772    0.10259   1.00
C6       0.68524    0.53849    0.16323   1.00
C6       0.86808    0.51071    0.23844   1.00
C6       0.85967    0.44225    0.26264   1.00
H2       0.90456    0.46212    0.22559   1.00
H2       0.84494    0.39051    0.19811   1.00
C6       0.84550    0.38378    0.13623   1.00
C6       0.90441    0.38393    0.17972   1.00
H2       0.88919    0.45375    0.11999   1.00
C6       0.87332    0.51336    0.12537   1.00
C6       0.93239    0.48244    0.15487   1.00
H2       0.81933    0.60346    0.13379   1.00
H2       0.77744    0.63090    0.12135   1.00
H2       0.81810    0.62917    0.08960   1.00
H2       0.78632    0.59608    0.02815   1.00
H2       0.74217    0.57178    0.03771   1.00
H2       0.74942    0.61964    0.05449   1.00
H2       0.72929    0.43672    0.10402   1.00
H2       0.72357    0.46532    0.14580   1.00
H2       0.69337    0.47352    0.10466   1.00
H2       0.77220    0.50862    0.03685   1.00
H2       0.74984    0.46308    0.04182   1.00
H2       0.72070    0.50550    0.04247   1.00
H2       0.67742    0.55514    0.08089   1.00
H2       0.65539    0.58708    0.11485   1.00
H2       0.69496    0.60332    0.08794   1.00
H2       0.66553    0.51902    0.14752   1.00
H2       0.70138    0.52068    0.18375   1.00
H2       0.66709    0.55828    0.18049   1.00
H2       0.83856    0.51688    0.24848   1.00
H2       0.88780    0.51809    0.26242   1.00
H2       0.87477    0.53048    0.21451   1.00
H2       0.87543    0.45125    0.28891   1.00
H2       0.82873    0.44574    0.26880   1.00
H2       0.86566    0.41122    0.25886   1.00
H2       0.84360    0.35202    0.13890   1.00
H2       0.81593    0.39435    0.13068   1.00
H2       0.86335    0.39035    0.11070   1.00
H2       0.91838    0.39416    0.20644   1.00
H2       0.90255    0.35212    0.18179   1.00
H2       0.92335    0.39085    0.15504   1.00
H2       0.87006    0.53656    0.14689   1.00
H2       0.89263    0.52381    0.10226   1.00
H2       0.84497    0.50834    0.11216   1.00
H2       0.94931    0.49044    0.12901   1.00
H2       0.93513    0.50622    0.17593   1.00
H2       0.94618    0.45657    0.16720   1.00
C4       0.47916    0.25302    0.24960   1.00
C4       0.52088    0.25259    0.25019   1.00
C3       0.45636    0.28442    0.26411   1.00
C3       0.54384    0.28182    0.26850   1.00
C3       0.45877    0.22009    0.23425   1.00
C3       0.54114    0.22140    0.23143   1.00
C2       0.39488    0.25083    0.24913   1.00
C2       0.60512    0.24917    0.25087   1.00
C3       0.41538    0.28329    0.26410   1.00
C3       0.58481    0.28038    0.26853   1.00
C3       0.41742    0.21983    0.23383   1.00
C3       0.58238    0.21961    0.23324   1.00
H1       0.46885    0.30910    0.27499   1.00
H1       0.53148    0.30490    0.28257   1.00
C5       0.47980    0.18773    0.21926   1.00
C5       0.52020    0.19197    0.21128   1.00
H1       0.40045    0.30675    0.27524   1.00
H1       0.59990    0.30251    0.28194   1.00
H1       0.40320    0.19649    0.22174   1.00
H1       0.59632    0.19582    0.22184   1.00
O3       0.46039    0.15360    0.21058   1.00
O3       0.53901    0.16615    0.18665   1.00
Si1      0.45753    0.11900    0.24322   1.00
Si1      0.54721    0.17918    0.14159   1.00
C6       0.42462    0.08877    0.21759   1.00
C6       0.50402    0.09724    0.24669   1.00
C6       0.43747    0.13480    0.28796   1.00
C6       0.53307    0.22658    0.12691   1.00
C6       0.59802    0.17440    0.13717   1.00
C6       0.52523    0.14393    0.11132   1.00
C6       0.38806    0.10968    0.19972   1.00
H2       0.44209    0.07950    0.19259   1.00
C6       0.40853    0.05017    0.23631   1.00
H2       0.51642    0.10361    0.21807   1.00
C6       0.53366    0.11408    0.27706   1.00
C6       0.50664    0.05188    0.25137   1.00
H2       0.41169    0.15098    0.27842   1.00
C6       0.42228    0.10259    0.31665   1.00
C6       0.46151    0.16323    0.31476   1.00
C6       0.48929    0.23844    0.13192   1.00
C6       0.55775    0.26264    0.14033   1.00
H2       0.53788    0.22559    0.09544   1.00
H2       0.60949    0.19811    0.15506   1.00
C6       0.61622    0.13623    0.15450   1.00
C6       0.61607    0.17972    0.09559   1.00
H2       0.54625    0.11999    0.11081   1.00
C6       0.48664    0.12537    0.12668   1.00
C6       0.51756    0.15487    0.06761   1.00
H2       0.39654    0.13379    0.18067   1.00
H2       0.36910    0.12135    0.22256   1.00
H2       0.37083    0.08960    0.18190   1.00
H2       0.40392    0.02815    0.21368   1.00
H2       0.42822    0.03771    0.25783   1.00
H2       0.38036    0.05449    0.25058   1.00
H2       0.56328    0.10402    0.27071   1.00
H2       0.53468    0.14580    0.27643   1.00
H2       0.52648    0.10466    0.30663   1.00
H2       0.49138    0.03685    0.22780   1.00
H2       0.53692    0.04182    0.25016   1.00
H2       0.49450    0.04247    0.27930   1.00
H2       0.44486    0.08089    0.32258   1.00
H2       0.41292    0.11485    0.34461   1.00
H2       0.39668    0.08794    0.30504   1.00
H2       0.48098    0.14752    0.33447   1.00
H2       0.47932    0.18375    0.29862   1.00
H2       0.44172    0.18049    0.33291   1.00
H2       0.48312    0.24848    0.16144   1.00
H2       0.48191    0.26242    0.11220   1.00
H2       0.46952    0.21451    0.12523   1.00
H2       0.54875    0.28891    0.12457   1.00
H2       0.55426    0.26880    0.17127   1.00
H2       0.58878    0.25886    0.13434   1.00
H2       0.64798    0.13890    0.15640   1.00
H2       0.60565    0.13068    0.18407   1.00
H2       0.60965    0.11070    0.13665   1.00
H2       0.60584    0.20644    0.08162   1.00
H2       0.64788    0.18179    0.09745   1.00
H2       0.60915    0.15504    0.07665   1.00
H2       0.46344    0.14689    0.12994   1.00
H2       0.47619    0.10226    0.10737   1.00
H2       0.49166    0.11216    0.15503   1.00
H2       0.50956    0.12901    0.05069   1.00
H2       0.49378    0.17593    0.06487   1.00
H2       0.54343    0.16720    0.05382   1.00
C4       1.02084    0.25302    0.25040   1.00
C4       0.97912    0.25259    0.24981   1.00
C3       1.04364    0.28442    0.23589   1.00
C3       0.95616    0.28182    0.23150   1.00
C3       1.04123    0.22009    0.26575   1.00
C3       0.95886    0.22140    0.26857   1.00
C2       1.10512    0.25083    0.25087   1.00
C2       0.89488    0.24917    0.24913   1.00
C3       1.08462    0.28329    0.23590   1.00
C3       0.91519    0.28038    0.23147   1.00
C3       1.08258    0.21983    0.26617   1.00
C3       0.91762    0.21961    0.26676   1.00
H1       1.03115    0.30910    0.22501   1.00
H1       0.96852    0.30490    0.21743   1.00
C5       1.02020    0.18773    0.28074   1.00
C5       0.97980    0.19197    0.28872   1.00
H1       1.09955    0.30675    0.22476   1.00
H1       0.90010    0.30251    0.21806   1.00
H1       1.09680    0.19649    0.27826   1.00
H1       0.90368    0.19582    0.27816   1.00
O3       1.03961    0.15360    0.28942   1.00
O3       0.96099    0.16615    0.31335   1.00
Si1      1.04247    0.11900    0.25678   1.00
Si1      0.95279    0.17918    0.35841   1.00
C6       1.07538    0.08877    0.28241   1.00
C6       0.99598    0.09724    0.25331   1.00
C6       1.06253    0.13480    0.21204   1.00
C6       0.96693    0.22658    0.37309   1.00
C6       0.90198    0.17440    0.36283   1.00
C6       0.97477    0.14393    0.38868   1.00
C6       1.11194    0.10968    0.30028   1.00
H2       1.05791    0.07950    0.30741   1.00
C6       1.09147    0.05017    0.26369   1.00
H2       0.98358    0.10361    0.28193   1.00
C6       0.96634    0.11408    0.22294   1.00
C6       0.99336    0.05188    0.24863   1.00
H2       1.08831    0.15098    0.22158   1.00
C6       1.07772    0.10259    0.18335   1.00
C6       1.03849    0.16323    0.18524   1.00
C6       1.01071    0.23844    0.36808   1.00
C6       0.94225    0.26264    0.35967   1.00
H2       0.96212    0.22559    0.40456   1.00
H2       0.89051    0.19811    0.34494   1.00
C6       0.88378    0.13623    0.34550   1.00
C6       0.88393    0.17972    0.40441   1.00
H2       0.95375    0.11999    0.38919   1.00
C6       1.01336    0.12537    0.37332   1.00
C6       0.98244    0.15487    0.43239   1.00
H2       1.10346    0.13379    0.31933   1.00
H2       1.13090    0.12135    0.27744   1.00
H2       1.12917    0.08960    0.31810   1.00
H2       1.09608    0.02815    0.28632   1.00
H2       1.07178    0.03771    0.24217   1.00
H2       1.11964    0.05449    0.24942   1.00
H2       0.93672    0.10402    0.22929   1.00
H2       0.96532    0.14580    0.22357   1.00
H2       0.97352    0.10466    0.19337   1.00
H2       1.00862    0.03685    0.27220   1.00
H2       0.96308    0.04182    0.24984   1.00
H2       1.00550    0.04247    0.22070   1.00
H2       1.05514    0.08089    0.17742   1.00
H2       1.08708    0.11485    0.15539   1.00
H2       1.10332    0.08794    0.19496   1.00
H2       1.01902    0.14752    0.16553   1.00
H2       1.02068    0.18375    0.20138   1.00
H2       1.05828    0.18049    0.16709   1.00
H2       1.01688    0.24848    0.33856   1.00
H2       1.01809    0.26242    0.38780   1.00
H2       1.03048    0.21451    0.37477   1.00
H2       0.95125    0.28891    0.37543   1.00
H2       0.94574    0.26880    0.32873   1.00
H2       0.91122    0.25886    0.36566   1.00
H2       0.85202    0.13890    0.34360   1.00
H2       0.89435    0.13068    0.31593   1.00
H2       0.89035    0.11070    0.36335   1.00
H2       0.89416    0.20644    0.41838   1.00
H2       0.85212    0.18179    0.40255   1.00
H2       0.89085    0.15504    0.42335   1.00
H2       1.03656    0.14689    0.37006   1.00
H2       1.02381    0.10226    0.39263   1.00
H2       1.00834    0.11216    0.34497   1.00
H2       0.99044    0.12901    0.44931   1.00
H2       1.00622    0.17593    0.43513   1.00
H2       0.95657    0.16720    0.44618   1.00
C4       0.74960    -0.02084   0.25302   1.00
C4       0.75019    0.02088    0.25259   1.00
C3       0.76411    -0.04364   0.28442   1.00
C3       0.76850    0.04384    0.28182   1.00
C3       0.73425    -0.04123   0.22009   1.00
C3       0.73143    0.04114    0.22140   1.00
C2       0.74913    -0.10512   0.25083   1.00
C2       0.75087    0.10512    0.24917   1.00
C3       0.76410    -0.08462   0.28329   1.00
C3       0.76853    0.08481    0.28038   1.00
C3       0.73383    -0.08258   0.21983   1.00
C3       0.73324    0.08238    0.21961   1.00
H1       0.77499    -0.03115   0.30910   1.00
H1       0.78257    0.03148    0.30490   1.00
C5       0.71926    -0.02020   0.18773   1.00
C5       0.71128    0.02020    0.19197   1.00
H1       0.77524    -0.09955   0.30675   1.00
H1       0.78194    0.09990    0.30251   1.00
H1       0.72174    -0.09680   0.19649   1.00
H1       0.72184    0.09632    0.19582   1.00
O3       0.71058    -0.03961   0.15360   1.00
O3       0.68665    0.03901    0.16615   1.00
Si1      0.74322    -0.04247   0.11900   1.00
Si1      0.64159    0.04721    0.17918   1.00
C6       0.71759    -0.07538   0.08877   1.00
C6       0.74669    0.00402    0.09724   1.00
C6       0.78796    -0.06253   0.13480   1.00
C6       0.62691    0.03307    0.22658   1.00
C6       0.63717    0.09802    0.17440   1.00
C6       0.61132    0.02523    0.14393   1.00
C6       0.69972    -0.11194   0.10968   1.00
H2       0.69259    -0.05791   0.07950   1.00
C6       0.73631    -0.09147   0.05017   1.00
H2       0.71807    0.01642    0.10361   1.00
C6       0.77706    0.03366    0.11408   1.00
C6       0.75137    0.00664    0.05188   1.00
H2       0.77842    -0.08831   0.15098   1.00
C6       0.81665    -0.07772   0.10259   1.00
C6       0.81476    -0.03849   0.16323   1.00
C6       0.63192    -0.01071   0.23844   1.00
C6       0.64033    0.05775    0.26264   1.00
H2       0.59544    0.03788    0.22559   1.00
H2       0.65506    0.10949    0.19811   1.00
C6       0.65450    0.11622    0.13623   1.00
C6       0.59559    0.11607    0.17972   1.00
H2       0.61081    0.04625    0.11999   1.00
C6       0.62668    -0.01336   0.12537   1.00
C6       0.56761    0.01756    0.15487   1.00
H2       0.68067    -0.10346   0.13379   1.00
H2       0.72256    -0.13090   0.12135   1.00
H2       0.68190    -0.12917   0.08960   1.00
H2       0.71368    -0.09608   0.02815   1.00
H2       0.75783    -0.07178   0.03771   1.00
H2       0.75058    -0.11964   0.05449   1.00
H2       0.77071    0.06328    0.10402   1.00
H2       0.77643    0.03468    0.14580   1.00
H2       0.80663    0.02648    0.10466   1.00
H2       0.72780    -0.00862   0.03685   1.00
H2       0.75016    0.03692    0.04182   1.00
H2       0.77930    -0.00550   0.04247   1.00
H2       0.82258    -0.05514   0.08089   1.00
H2       0.84461    -0.08708   0.11485   1.00
H2       0.80504    -0.10332   0.08794   1.00
H2       0.83447    -0.01902   0.14752   1.00
H2       0.79862    -0.02068   0.18375   1.00
H2       0.83291    -0.05828   0.18049   1.00
H2       0.66144    -0.01688   0.24848   1.00
H2       0.61220    -0.01809   0.26242   1.00
H2       0.62523    -0.03048   0.21451   1.00
H2       0.62457    0.04875    0.28891   1.00
H2       0.67127    0.05426    0.26880   1.00
H2       0.63434    0.08878    0.25886   1.00
H2       0.65640    0.14798    0.13890   1.00
H2       0.68407    0.10565    0.13068   1.00
H2       0.63665    0.10965    0.11070   1.00
H2       0.58162    0.10584    0.20644   1.00
H2       0.59745    0.14788    0.18179   1.00
H2       0.57665    0.10915    0.15504   1.00
H2       0.62994    -0.03656   0.14689   1.00
H2       0.60737    -0.02381   0.10226   1.00
H2       0.65503    -0.00834   0.11216   1.00
H2       0.55069    0.00956    0.12901   1.00
H2       0.56487    -0.00622   0.17593   1.00
H2       0.55382    0.04343    0.16720   1.00
C4       0.75302    0.24960    -0.02084   1.00
C4       0.75259    0.25019    0.02088   1.00
C3       0.78442    0.26411    -0.04364   1.00
C3       0.78182    0.26850    0.04384   1.00
C3       0.72009    0.23425    -0.04123   1.00
C3       0.72140    0.23143    0.04114   1.00
C2       0.75083    0.24913    -0.10512   1.00
C2       0.74917    0.25087    0.10512   1.00
C3       0.78329    0.26410    -0.08462   1.00
C3       0.78038    0.26853    0.08481   1.00
C3       0.71983    0.23383    -0.08258   1.00
C3       0.71961    0.23324    0.08238   1.00
H1       0.80910    0.27499    -0.03115   1.00
H1       0.80490    0.28257    0.03148   1.00
C5       0.68773    0.21926    -0.02020   1.00
C5       0.69197    0.21128    0.02020   1.00
H1       0.80675    0.27524    -0.09955   1.00
H1       0.80251    0.28194    0.09990   1.00
H1       0.69649    0.22174    -0.09680   1.00
H1       0.69582    0.22184    0.09632   1.00
O3       0.65360    0.21058    -0.03961   1.00
O3       0.66615    0.18665    0.03901   1.00
Si1      0.61900    0.24322    -0.04247   1.00
Si1      0.67918    0.14159    0.04721   1.00
C6       0.58877    0.21759    -0.07538   1.00
C6       0.59724    0.24669    0.00402   1.00
C6       0.63480    0.28796    -0.06253   1.00
C6       0.72658    0.12691    0.03307   1.00
C6       0.67440    0.13717    0.09802   1.00
C6       0.64393    0.11132    0.02523   1.00
C6       0.60968    0.19972    -0.11194   1.00
H2       0.57950    0.19259    -0.05791   1.00
C6       0.55017    0.23631    -0.09147   1.00
H2       0.60361    0.21807    0.01642   1.00
C6       0.61408    0.27706    0.03366   1.00
C6       0.55188    0.25137    0.00664   1.00
H2       0.65098    0.27842    -0.08831   1.00
C6       0.60259    0.31665    -0.07772   1.00
C6       0.66323    0.31476    -0.03849   1.00
C6       0.73844    0.13192    -0.01071   1.00
C6       0.76264    0.14033    0.05775   1.00
H2       0.72559    0.09544    0.03788   1.00
H2       0.69811    0.15506    0.10949   1.00
C6       0.63623    0.15450    0.11622   1.00
C6       0.67972    0.09559    0.11607   1.00
H2       0.61999    0.11081    0.04625   1.00
C6       0.62537    0.12668    -0.01336   1.00
C6       0.65487    0.06761    0.01756   1.00
H2       0.63379    0.18067    -0.10346   1.00
H2       0.62135    0.22256    -0.13090   1.00
H2       0.58960    0.18190    -0.12917   1.00
H2       0.52815    0.21368    -0.09608   1.00
H2       0.53771    0.25783    -0.07178   1.00
H2       0.55449    0.25058    -0.11964   1.00
H2       0.60402    0.27071    0.06328   1.00
H2       0.64580    0.27643    0.03468   1.00
H2       0.60466    0.30663    0.02648   1.00
H2       0.53685    0.22780    -0.00862   1.00
H2       0.54182    0.25016    0.03692   1.00
H2       0.54247    0.27930    -0.00550   1.00
H2       0.58089    0.32258    -0.05514   1.00
H2       0.61485    0.34461    -0.08708   1.00
H2       0.58794    0.30504    -0.10332   1.00
H2       0.64752    0.33447    -0.01902   1.00
H2       0.68375    0.29862    -0.02068   1.00
H2       0.68049    0.33291    -0.05828   1.00
H2       0.74848    0.16144    -0.01688   1.00
H2       0.76242    0.11220    -0.01809   1.00
H2       0.71451    0.12523    -0.03048   1.00
H2       0.78891    0.12457    0.04875   1.00
H2       0.76880    0.17127    0.05426   1.00
H2       0.75886    0.13434    0.08878   1.00
H2       0.63890    0.15640    0.14798   1.00
H2       0.63068    0.18407    0.10565   1.00
H2       0.61070    0.13665    0.10965   1.00
H2       0.70644    0.08162    0.10584   1.00
H2       0.68179    0.09745    0.14788   1.00
H2       0.65504    0.07665    0.10915   1.00
H2       0.64689    0.12994    -0.03656   1.00
H2       0.60226    0.10737    -0.02381   1.00
H2       0.61216    0.15503    -0.00834   1.00
H2       0.62901    0.05069    0.00956   1.00
H2       0.67593    0.06487    -0.00622   1.00
H2       0.66720    0.05382    0.04343   1.00
C4       1.00302    1.00040    1.27084   1.00
C4       1.00259    0.99981    1.22912   1.00
C3       1.03442    0.98589    1.29364   1.00
C3       1.03182    0.98150    1.20616   1.00
C3       0.97009    1.01575    1.29123   1.00
C3       0.97140    1.01857    1.20886   1.00
C2       1.00083    1.00087    1.35512   1.00
C2       0.99917    0.99913    1.14488   1.00
C3       1.03329    0.98590    1.33462   1.00
C3       1.03038    0.98147    1.16519   1.00
C3       0.96983    1.01617    1.33258   1.00
C3       0.96961    1.01676    1.16762   1.00
H1       1.05910    0.97501    1.28115   1.00
H1       1.05490    0.96743    1.21852   1.00
C5       0.93773    1.03074    1.27020   1.00
C5       0.94197    1.03872    1.22980   1.00
H1       1.05675    0.97476    1.34955   1.00
H1       1.05251    0.96806    1.15010   1.00
H1       0.94649    1.02826    1.34680   1.00
H1       0.94582    1.02816    1.15368   1.00
O3       0.90360    1.03942    1.28961   1.00
O3       0.91615    1.06335    1.21099   1.00
Si1      0.86900    1.00678    1.29247   1.00
Si1      0.92918    1.10841    1.20279   1.00
C6       0.83877    1.03241    1.32538   1.00
C6       0.84724    1.00331    1.24598   1.00
C6       0.88480    0.96204    1.31253   1.00
C6       0.97658    1.12309    1.21693   1.00
C6       0.92440    1.11283    1.15198   1.00
C6       0.89393    1.13868    1.22477   1.00
C6       0.85968    1.05028    1.36194   1.00
H2       0.82950    1.05741    1.30791   1.00
C6       0.80017    1.01369    1.34147   1.00
H2       0.85361    1.03193    1.23358   1.00
C6       0.86408    0.97294    1.21634   1.00
C6       0.80188    0.99863    1.24336   1.00
H2       0.90098    0.97158    1.33831   1.00
C6       0.85259    0.93335    1.32772   1.00
C6       0.91323    0.93524    1.28849   1.00
C6       0.98844    1.11808    1.26071   1.00
C6       1.01264    1.10967    1.19225   1.00
H2       0.97559    1.15456    1.21212   1.00
H2       0.94811    1.09494    1.14051   1.00
C6       0.88623    1.09550    1.13378   1.00
C6       0.92972    1.15441    1.13393   1.00
H2       0.86999    1.13919    1.20375   1.00
C6       0.87537    1.12332    1.26336   1.00
C6       0.90487    1.18239    1.23244   1.00
H2       0.88379    1.06933    1.35346   1.00
H2       0.87135    1.02744    1.38090   1.00
H2       0.83960    1.06810    1.37917   1.00
H2       0.77815    1.03632    1.34608   1.00
H2       0.78771    0.99217    1.32178   1.00
H2       0.80449    0.99942    1.36964   1.00
H2       0.85402    0.97929    1.18672   1.00
H2       0.89580    0.97357    1.21532   1.00
H2       0.85466    0.94337    1.22352   1.00
H2       0.78685    1.02220    1.25862   1.00
H2       0.79182    0.99984    1.21308   1.00
H2       0.79247    0.97070    1.25550   1.00
H2       0.83089    0.92742    1.30514   1.00
H2       0.86485    0.90539    1.33708   1.00
H2       0.83794    0.94496    1.35332   1.00
H2       0.89752    0.91553    1.26902   1.00
H2       0.93375    0.95138    1.27068   1.00
H2       0.93049    0.91709    1.30828   1.00
H2       0.99848    1.08856    1.26688   1.00
H2       1.01242    1.13780    1.26809   1.00
H2       0.96451    1.12477    1.28048   1.00
H2       1.03891    1.12543    1.20125   1.00
H2       1.01880    1.07873    1.19574   1.00
H2       1.00886    1.11566    1.16122   1.00
H2       0.88890    1.09360    1.10202   1.00
H2       0.88068    1.06593    1.14435   1.00
H2       0.86070    1.11335    1.14035   1.00
H2       0.95644    1.16838    1.14416   1.00
H2       0.93179    1.15255    1.10212   1.00
H2       0.90504    1.17335    1.14085   1.00
H2       0.89689    1.12006    1.28656   1.00
H2       0.85226    1.14263    1.27381   1.00
H2       0.86216    1.09497    1.25834   1.00
H2       0.87901    1.19931    1.24044   1.00
H2       0.92593    1.18513    1.25622   1.00
H2       0.91720    1.19618    1.20657   1.00
C4       1.00040    1.27084    1.00302   1.00
C4       0.99981    1.22912    1.00259   1.00
C3       0.98589    1.29364    1.03442   1.00
C3       0.98150    1.20616    1.03182   1.00
C3       1.01575    1.29123    0.97009   1.00
C3       1.01857    1.20886    0.97140   1.00
C2       1.00087    1.35512    1.00083   1.00
C2       0.99913    1.14488    0.99917   1.00
C3       0.98590    1.33462    1.03329   1.00
C3       0.98147    1.16519    1.03038   1.00
C3       1.01617    1.33258    0.96983   1.00
C3       1.01676    1.16762    0.96961   1.00
H1       0.97501    1.28115    1.05910   1.00
H1       0.96743    1.21852    1.05490   1.00
C5       1.03074    1.27020    0.93773   1.00
C5       1.03872    1.22980    0.94197   1.00
H1       0.97476    1.34955    1.05675   1.00
H1       0.96806    1.15010    1.05251   1.00
H1       1.02826    1.34680    0.94649   1.00
H1       1.02816    1.15368    0.94582   1.00
O3       1.03942    1.28961    0.90360   1.00
O3       1.06335    1.21099    0.91615   1.00
Si1      1.00678    1.29247    0.86900   1.00
Si1      1.10841    1.20279    0.92918   1.00
C6       1.03241    1.32538    0.83877   1.00
C6       1.00331    1.24598    0.84724   1.00
C6       0.96204    1.31253    0.88480   1.00
C6       1.12309    1.21693    0.97658   1.00
C6       1.11283    1.15198    0.92440   1.00
C6       1.13868    1.22477    0.89393   1.00
C6       1.05028    1.36194    0.85968   1.00
H2       1.05741    1.30791    0.82950   1.00
C6       1.01369    1.34147    0.80017   1.00
H2       1.03193    1.23358    0.85361   1.00
C6       0.97294    1.21634    0.86408   1.00
C6       0.99863    1.24336    0.80188   1.00
H2       0.97158    1.33831    0.90098   1.00
C6       0.93335    1.32772    0.85259   1.00
C6       0.93524    1.28849    0.91323   1.00
C6       1.11808    1.26071    0.98844   1.00
C6       1.10967    1.19225    1.01264   1.00
H2       1.15456    1.21212    0.97559   1.00
H2       1.09494    1.14051    0.94811   1.00
C6       1.09550    1.13378    0.88623   1.00
C6       1.15441    1.13393    0.92972   1.00
H2       1.13919    1.20375    0.86999   1.00
C6       1.12332    1.26336    0.87537   1.00
C6       1.18239    1.23244    0.90487   1.00
H2       1.06933    1.35346    0.88379   1.00
H2       1.02744    1.38090    0.87135   1.00
H2       1.06810    1.37917    0.83960   1.00
H2       1.03632    1.34608    0.77815   1.00
H2       0.99217    1.32178    0.78771   1.00
H2       0.99942    1.36964    0.80449   1.00
H2       0.97929    1.18672    0.85402   1.00
H2       0.97357    1.21532    0.89580   1.00
H2       0.94337    1.22352    0.85466   1.00
H2       1.02220    1.25862    0.78685   1.00
H2       0.99984    1.21308    0.79182   1.00
H2       0.97070    1.25550    0.79247   1.00
H2       0.92742    1.30514    0.83089   1.00
H2       0.90539    1.33708    0.86485   1.00
H2       0.94496    1.35332    0.83794   1.00
H2       0.91553    1.26902    0.89752   1.00
H2       0.95138    1.27068    0.93375   1.00
H2       0.91709    1.30828    0.93049   1.00
H2       1.08856    1.26688    0.99848   1.00
H2       1.13780    1.26809    1.01242   1.00
H2       1.12477    1.28048    0.96451   1.00
H2       1.12543    1.20125    1.03891   1.00
H2       1.07873    1.19574    1.01880   1.00
H2       1.11566    1.16122    1.00886   1.00
H2       1.09360    1.10202    0.88890   1.00
H2       1.06593    1.14435    0.88068   1.00
H2       1.11335    1.14035    0.86070   1.00
H2       1.16838    1.14416    0.95644   1.00
H2       1.15255    1.10212    0.93179   1.00
H2       1.17335    1.14085    0.90504   1.00
H2       1.12006    1.28656    0.89689   1.00
H2       1.14263    1.27381    0.85226   1.00
H2       1.09497    1.25834    0.86216   1.00
H2       1.19931    1.24044    0.87901   1.00
H2       1.18513    1.25622    0.92593   1.00
H2       1.19618    1.20657    0.91720   1.00
C4       0.72916    1.00302    0.99960   1.00
C4       0.77088    1.00259    1.00019   1.00
C3       0.70636    1.03442    1.01411   1.00
C3       0.79384    1.03182    1.01850   1.00
C3       0.70877    0.97009    0.98425   1.00
C3       0.79114    0.97140    0.98143   1.00
C2       0.64488    1.00083    0.99913   1.00
C2       0.85512    0.99917    1.00087   1.00
C3       0.66538    1.03329    1.01410   1.00
C3       0.83481    1.03038    1.01853   1.00
C3       0.66742    0.96983    0.98383   1.00
C3       0.83238    0.96961    0.98324   1.00
H1       0.71885    1.05910    1.02499   1.00
H1       0.78148    1.05490    1.03257   1.00
C5       0.72980    0.93773    0.96926   1.00
C5       0.77020    0.94197    0.96128   1.00
H1       0.65045    1.05675    1.02524   1.00
H1       0.84990    1.05251    1.03194   1.00
H1       0.65320    0.94649    0.97174   1.00
H1       0.84632    0.94582    0.97184   1.00
O3       0.71039    0.90360    0.96058   1.00
O3       0.78901    0.91615    0.93665   1.00
Si1      0.70753    0.86900    0.99322   1.00
Si1      0.79721    0.92918    0.89159   1.00
C6       0.67462    0.83877    0.96759   1.00
C6       0.75402    0.84724    0.99669   1.00
C6       0.68747    0.88480    1.03796   1.00
C6       0.78307    0.97658    0.87691   1.00
C6       0.84802    0.92440    0.88717   1.00
C6       0.77523    0.89393    0.86132   1.00
C6       0.63806    0.85968    0.94972   1.00
H2       0.69209    0.82950    0.94259   1.00
C6       0.65853    0.80017    0.98631   1.00
H2       0.76642    0.85361    0.96807   1.00
C6       0.78366    0.86408    1.02706   1.00
C6       0.75664    0.80188    1.00137   1.00
H2       0.66169    0.90098    1.02842   1.00
C6       0.67228    0.85259    1.06665   1.00
C6       0.71151    0.91323    1.06476   1.00
C6       0.73929    0.98844    0.88192   1.00
C6       0.80775    1.01264    0.89033   1.00
H2       0.78788    0.97559    0.84544   1.00
H2       0.85949    0.94811    0.90506   1.00
C6       0.86622    0.88623    0.90450   1.00
C6       0.86607    0.92972    0.84559   1.00
H2       0.79625    0.86999    0.86081   1.00
C6       0.73664    0.87537    0.87668   1.00
C6       0.76756    0.90487    0.81761   1.00
H2       0.64654    0.88379    0.93067   1.00
H2       0.61910    0.87135    0.97256   1.00
H2       0.62083    0.83960    0.93190   1.00
H2       0.65392    0.77815    0.96368   1.00
H2       0.67822    0.78771    1.00783   1.00
H2       0.63036    0.80449    1.00058   1.00
H2       0.81328    0.85402    1.02071   1.00
H2       0.78468    0.89580    1.02643   1.00
H2       0.77648    0.85466    1.05663   1.00
H2       0.74138    0.78685    0.97780   1.00
H2       0.78692    0.79182    1.00016   1.00
H2       0.74450    0.79247    1.02930   1.00
H2       0.69486    0.83089    1.07258   1.00
H2       0.66292    0.86485    1.09461   1.00
H2       0.64668    0.83794    1.05504   1.00
H2       0.73098    0.89752    1.08447   1.00
H2       0.72932    0.93375    1.04862   1.00
H2       0.69172    0.93049    1.08291   1.00
H2       0.73312    0.99848    0.91144   1.00
H2       0.73191    1.01242    0.86220   1.00
H2       0.71952    0.96451    0.87523   1.00
H2       0.79875    1.03891    0.87457   1.00
H2       0.80426    1.01880    0.92127   1.00
H2       0.83878    1.00886    0.88434   1.00
H2       0.89798    0.88890    0.90640   1.00
H2       0.85565    0.88068    0.93407   1.00
H2       0.85965    0.86070    0.88665   1.00
H2       0.85584    0.95644    0.83162   1.00
H2       0.89788    0.93179    0.84745   1.00
H2       0.85915    0.90504    0.82665   1.00
H2       0.71344    0.89689    0.87994   1.00
H2       0.72619    0.85226    0.85737   1.00
H2       0.74166    0.86216    0.90503   1.00
H2       0.75956    0.87901    0.80069   1.00
H2       0.74378    0.92593    0.81487   1.00
H2       0.79343    0.91720    0.80382   1.00
C4       1.27084    1.00302    1.00040   1.00
C4       1.22912    1.00259    0.99981   1.00
C3       1.29364    1.03442    0.98589   1.00
C3       1.20616    1.03182    0.98150   1.00
C3       1.29123    0.97009    1.01575   1.00
C3       1.20886    0.97140    1.01857   1.00
C2       1.35512    1.00083    1.00087   1.00
C2       1.14488    0.99917    0.99913   1.00
C3       1.33462    1.03329    0.98590   1.00
C3       1.16519    1.03038    0.98147   1.00
C3       1.33258    0.96983    1.01617   1.00
C3       1.16762    0.96961    1.01676   1.00
H1       1.28115    1.05910    0.97501   1.00
H1       1.21852    1.05490    0.96743   1.00
C5       1.27020    0.93773    1.03074   1.00
C5       1.22980    0.94197    1.03872   1.00
H1       1.34955    1.05675    0.97476   1.00
H1       1.15010    1.05251    0.96806   1.00
H1       1.34680    0.94649    1.02826   1.00
H1       1.15368    0.94582    1.02816   1.00
O3       1.28961    0.90360    1.03942   1.00
O3       1.21099    0.91615    1.06335   1.00
Si1      1.29247    0.86900    1.00678   1.00
Si1      1.20279    0.92918    1.10841   1.00
C6       1.32538    0.83877    1.03241   1.00
C6       1.24598    0.84724    1.00331   1.00
C6       1.31253    0.88480    0.96204   1.00
C6       1.21693    0.97658    1.12309   1.00
C6       1.15198    0.92440    1.11283   1.00
C6       1.22477    0.89393    1.13868   1.00
C6       1.36194    0.85968    1.05028   1.00
H2       1.30791    0.82950    1.05741   1.00
C6       1.34147    0.80017    1.01369   1.00
H2       1.23358    0.85361    1.03193   1.00
C6       1.21634    0.86408    0.97294   1.00
C6       1.24336    0.80188    0.99863   1.00
H2       1.33831    0.90098    0.97158   1.00
C6       1.32772    0.85259    0.93335   1.00
C6       1.28849    0.91323    0.93524   1.00
C6       1.26071    0.98844    1.11808   1.00
C6       1.19225    1.01264    1.10967   1.00
H2       1.21212    0.97559    1.15456   1.00
H2       1.14051    0.94811    1.09494   1.00
C6       1.13378    0.88623    1.09550   1.00
C6       1.13393    0.92972    1.15441   1.00
H2       1.20375    0.86999    1.13919   1.00
C6       1.26336    0.87537    1.12332   1.00
C6       1.23244    0.90487    1.18239   1.00
H2       1.35346    0.88379    1.06933   1.00
H2       1.38090    0.87135    1.02744   1.00
H2       1.37917    0.83960    1.06810   1.00
H2       1.34608    0.77815    1.03632   1.00
H2       1.32178    0.78771    0.99217   1.00
H2       1.36964    0.80449    0.99942   1.00
H2       1.18672    0.85402    0.97929   1.00
H2       1.21532    0.89580    0.97357   1.00
H2       1.22352    0.85466    0.94337   1.00
H2       1.25862    0.78685    1.02220   1.00
H2       1.21308    0.79182    0.99984   1.00
H2       1.25550    0.79247    0.97070   1.00
H2       1.30514    0.83089    0.92742   1.00
H2       1.33708    0.86485    0.90539   1.00
H2       1.35332    0.83794    0.94496   1.00
H2       1.26902    0.89752    0.91553   1.00
H2       1.27068    0.93375    0.95138   1.00
H2       1.30828    0.93049    0.91709   1.00
H2       1.26688    0.99848    1.08856   1.00
H2       1.26809    1.01242    1.13780   1.00
H2       1.28048    0.96451    1.12477   1.00
H2       1.20125    1.03891    1.12543   1.00
H2       1.19574    1.01880    1.07873   1.00
H2       1.16122    1.00886    1.11566   1.00
H2       1.10202    0.88890    1.09360   1.00
H2       1.14435    0.88068    1.06593   1.00
H2       1.14035    0.86070    1.11335   1.00
H2       1.14416    0.95644    1.16838   1.00
H2       1.10212    0.93179    1.15255   1.00
H2       1.14085    0.90504    1.17335   1.00
H2       1.28656    0.89689    1.12006   1.00
H2       1.27381    0.85226    1.14263   1.00
H2       1.25834    0.86216    1.09497   1.00
H2       1.24044    0.87901    1.19931   1.00
H2       1.25622    0.92593    1.18513   1.00
H2       1.20657    0.91720    1.19618   1.00
C4       0.99960    0.72916    1.00302   1.00
C4       1.00019    0.77088    1.00259   1.00
C3       1.01411    0.70636    1.03442   1.00
C3       1.01850    0.79384    1.03182   1.00
C3       0.98425    0.70877    0.97009   1.00
C3       0.98143    0.79114    0.97140   1.00
C2       0.99913    0.64488    1.00083   1.00
C2       1.00087    0.85512    0.99917   1.00
C3       1.01410    0.66538    1.03329   1.00
C3       1.01853    0.83481    1.03038   1.00
C3       0.98383    0.66742    0.96983   1.00
C3       0.98324    0.83238    0.96961   1.00
H1       1.02499    0.71885    1.05910   1.00
H1       1.03257    0.78148    1.05490   1.00
C5       0.96926    0.72980    0.93773   1.00
C5       0.96128    0.77020    0.94197   1.00
H1       1.02524    0.65045    1.05675   1.00
H1       1.03194    0.84990    1.05251   1.00
H1       0.97174    0.65320    0.94649   1.00
H1       0.97184    0.84632    0.94582   1.00
O3       0.96058    0.71039    0.90360   1.00
O3       0.93665    0.78901    0.91615   1.00
Si1      0.99322    0.70753    0.86900   1.00
Si1      0.89159    0.79721    0.92918   1.00
C6       0.96759    0.67462    0.83877   1.00
C6       0.99669    0.75402    0.84724   1.00
C6       1.03796    0.68747    0.88480   1.00
C6       0.87691    0.78307    0.97658   1.00
C6       0.88717    0.84802    0.92440   1.00
C6       0.86132    0.77523    0.89393   1.00
C6       0.94972    0.63806    0.85968   1.00
H2       0.94259    0.69209    0.82950   1.00
C6       0.98631    0.65853    0.80017   1.00
H2       0.96807    0.76642    0.85361   1.00
C6       1.02706    0.78366    0.86408   1.00
C6       1.00137    0.75664    0.80188   1.00
H2       1.02842    0.66169    0.90098   1.00
C6       1.06665    0.67228    0.85259   1.00
C6       1.06476    0.71151    0.91323   1.00
C6       0.88192    0.73929    0.98844   1.00
C6       0.89033    0.80775    1.01264   1.00
H2       0.84544    0.78788    0.97559   1.00
H2       0.90506    0.85949    0.94811   1.00
C6       0.90450    0.86622    0.88623   1.00
C6       0.84559    0.86607    0.92972   1.00
H2       0.86081    0.79625    0.86999   1.00
C6       0.87668    0.73664    0.87537   1.00
C6       0.81761    0.76756    0.90487   1.00
H2       0.93067    0.64654    0.88379   1.00
H2       0.97256    0.61910    0.87135   1.00
H2       0.93190    0.62083    0.83960   1.00
H2       0.96368    0.65392    0.77815   1.00
H2       1.00783    0.67822    0.78771   1.00
H2       1.00058    0.63036    0.80449   1.00
H2       1.02071    0.81328    0.85402   1.00
H2       1.02643    0.78468    0.89580   1.00
H2       1.05663    0.77648    0.85466   1.00
H2       0.97780    0.74138    0.78685   1.00
H2       1.00016    0.78692    0.79182   1.00
H2       1.02930    0.74450    0.79247   1.00
H2       1.07258    0.69486    0.83089   1.00
H2       1.09461    0.66292    0.86485   1.00
H2       1.05504    0.64668    0.83794   1.00
H2       1.08447    0.73098    0.89752   1.00
H2       1.04862    0.72932    0.93375   1.00
H2       1.08291    0.69172    0.93049   1.00
H2       0.91144    0.73312    0.99848   1.00
H2       0.86220    0.73191    1.01242   1.00
H2       0.87523    0.71952    0.96451   1.00
H2       0.87457    0.79875    1.03891   1.00
H2       0.92127    0.80426    1.01880   1.00
H2       0.88434    0.83878    1.00886   1.00
H2       0.90640    0.89798    0.88890   1.00
H2       0.93407    0.85565    0.88068   1.00
H2       0.88665    0.85965    0.86070   1.00
H2       0.83162    0.85584    0.95644   1.00
H2       0.84745    0.89788    0.93179   1.00
H2       0.82665    0.85915    0.90504   1.00
H2       0.87994    0.71344    0.89689   1.00
H2       0.85737    0.72619    0.85226   1.00
H2       0.90503    0.74166    0.86216   1.00
H2       0.80069    0.75956    0.87901   1.00
H2       0.81487    0.74378    0.92593   1.00
H2       0.80382    0.79343    0.91720   1.00
C4       1.00302    0.99960    0.72916   1.00
C4       1.00259    1.00019    0.77088   1.00
C3       1.03442    1.01411    0.70636   1.00
C3       1.03182    1.01850    0.79384   1.00
C3       0.97009    0.98425    0.70877   1.00
C3       0.97140    0.98143    0.79114   1.00
C2       1.00083    0.99913    0.64488   1.00
C2       0.99917    1.00087    0.85512   1.00
C3       1.03329    1.01410    0.66538   1.00
C3       1.03038    1.01853    0.83481   1.00
C3       0.96983    0.98383    0.66742   1.00
C3       0.96961    0.98324    0.83238   1.00
H1       1.05910    1.02499    0.71885   1.00
H1       1.05490    1.03257    0.78148   1.00
C5       0.93773    0.96926    0.72980   1.00
C5       0.94197    0.96128    0.77020   1.00
H1       1.05675    1.02524    0.65045   1.00
H1       1.05251    1.03194    0.84990   1.00
H1       0.94649    0.97174    0.65320   1.00
H1       0.94582    0.97184    0.84632   1.00
O3       0.90360    0.96058    0.71039   1.00
O3       0.91615    0.93665    0.78901   1.00
Si1      0.86900    0.99322    0.70753   1.00
Si1      0.92918    0.89159    0.79721   1.00
C6       0.83877    0.96759    0.67462   1.00
C6       0.84724    0.99669    0.75402   1.00
C6       0.88480    1.03796    0.68747   1.00
C6       0.97658    0.87691    0.78307   1.00
C6       0.92440    0.88717    0.84802   1.00
C6       0.89393    0.86132    0.77523   1.00
C6       0.85968    0.94972    0.63806   1.00
H2       0.82950    0.94259    0.69209   1.00
C6       0.80017    0.98631    0.65853   1.00
H2       0.85361    0.96807    0.76642   1.00
C6       0.86408    1.02706    0.78366   1.00
C6       0.80188    1.00137    0.75664   1.00
H2       0.90098    1.02842    0.66169   1.00
C6       0.85259    1.06665    0.67228   1.00
C6       0.91323    1.06476    0.71151   1.00
C6       0.98844    0.88192    0.73929   1.00
C6       1.01264    0.89033    0.80775   1.00
H2       0.97559    0.84544    0.78788   1.00
H2       0.94811    0.90506    0.85949   1.00
C6       0.88623    0.90450    0.86622   1.00
C6       0.92972    0.84559    0.86607   1.00
H2       0.86999    0.86081    0.79625   1.00
C6       0.87537    0.87668    0.73664   1.00
C6       0.90487    0.81761    0.76756   1.00
H2       0.88379    0.93067    0.64654   1.00
H2       0.87135    0.97256    0.61910   1.00
H2       0.83960    0.93190    0.62083   1.00
H2       0.77815    0.96368    0.65392   1.00
H2       0.78771    1.00783    0.67822   1.00
H2       0.80449    1.00058    0.63036   1.00
H2       0.85402    1.02071    0.81328   1.00
H2       0.89580    1.02643    0.78468   1.00
H2       0.85466    1.05663    0.77648   1.00
H2       0.78685    0.97780    0.74138   1.00
H2       0.79182    1.00016    0.78692   1.00
H2       0.79247    1.02930    0.74450   1.00
H2       0.83089    1.07258    0.69486   1.00
H2       0.86485    1.09461    0.66292   1.00
H2       0.83794    1.05504    0.64668   1.00
H2       0.89752    1.08447    0.73098   1.00
H2       0.93375    1.04862    0.72932   1.00
H2       0.93049    1.08291    0.69172   1.00
H2       0.99848    0.91144    0.73312   1.00
H2       1.01242    0.86220    0.73191   1.00
H2       0.96451    0.87523    0.71952   1.00
H2       1.03891    0.87457    0.79875   1.00
H2       1.01880    0.92127    0.80426   1.00
H2       1.00886    0.88434    0.83878   1.00
H2       0.88890    0.90640    0.89798   1.00
H2       0.88068    0.93407    0.85565   1.00
H2       0.86070    0.88665    0.85965   1.00
H2       0.95644    0.83162    0.85584   1.00
H2       0.93179    0.84745    0.89788   1.00
H2       0.90504    0.82665    0.85915   1.00
H2       0.89689    0.87994    0.71344   1.00
H2       0.85226    0.85737    0.72619   1.00
H2       0.86216    0.90503    0.74166   1.00
H2       0.87901    0.80069    0.75956   1.00
H2       0.92593    0.81487    0.74378   1.00
H2       0.91720    0.80382    0.79343   1.00
C4       0.50302    0.50040    1.27084   1.00
C4       0.50259    0.49981    1.22912   1.00
C3       0.53442    0.48589    1.29364   1.00
C3       0.53182    0.48150    1.20616   1.00
C3       0.47009    0.51575    1.29123   1.00
C3       0.47140    0.51857    1.20886   1.00
C2       0.50083    0.50087    1.35512   1.00
C2       0.49917    0.49913    1.14488   1.00
C3       0.53329    0.48590    1.33462   1.00
C3       0.53038    0.48147    1.16519   1.00
C3       0.46983    0.51617    1.33258   1.00
C3       0.46961    0.51676    1.16762   1.00
H1       0.55910    0.47501    1.28115   1.00
H1       0.55490    0.46743    1.21852   1.00
C5       0.43773    0.53074    1.27020   1.00
C5       0.44197    0.53872    1.22980   1.00
H1       0.55675    0.47476    1.34955   1.00
H1       0.55251    0.46806    1.15010   1.00
H1       0.44649    0.52826    1.34680   1.00
H1       0.44582    0.52816    1.15368   1.00
O3       0.40360    0.53942    1.28961   1.00
O3       0.41615    0.56335    1.21099   1.00
Si1      0.36900    0.50678    1.29247   1.00
Si1      0.42918    0.60841    1.20279   1.00
C6       0.33877    0.53241    1.32538   1.00
C6       0.34724    0.50331    1.24598   1.00
C6       0.38480    0.46204    1.31253   1.00
C6       0.47658    0.62309    1.21693   1.00
C6       0.42440    0.61283    1.15198   1.00
C6       0.39393    0.63868    1.22477   1.00
C6       0.35968    0.55028    1.36194   1.00
H2       0.32950    0.55741    1.30791   1.00
C6       0.30017    0.51369    1.34147   1.00
H2       0.35361    0.53193    1.23358   1.00
C6       0.36408    0.47294    1.21634   1.00
C6       0.30188    0.49863    1.24336   1.00
H2       0.40098    0.47158    1.33831   1.00
C6       0.35259    0.43335    1.32772   1.00
C6       0.41323    0.43524    1.28849   1.00
C6       0.48844    0.61808    1.26071   1.00
C6       0.51264    0.60967    1.19225   1.00
H2       0.47559    0.65456    1.21212   1.00
H2       0.44811    0.59494    1.14051   1.00
C6       0.38623    0.59550    1.13378   1.00
C6       0.42972    0.65441    1.13393   1.00
H2       0.36999    0.63919    1.20375   1.00
C6       0.37537    0.62332    1.26336   1.00
C6       0.40487    0.68239    1.23244   1.00
H2       0.38379    0.56933    1.35346   1.00
H2       0.37135    0.52744    1.38090   1.00
H2       0.33960    0.56810    1.37917   1.00
H2       0.27815    0.53632    1.34608   1.00
H2       0.28771    0.49217    1.32178   1.00
H2       0.30449    0.49942    1.36964   1.00
H2       0.35402    0.47929    1.18672   1.00
H2       0.39580    0.47357    1.21532   1.00
H2       0.35466    0.44337    1.22352   1.00
H2       0.28685    0.52220    1.25862   1.00
H2       0.29182    0.49984    1.21308   1.00
H2       0.29247    0.47070    1.25550   1.00
H2       0.33089    0.42742    1.30514   1.00
H2       0.36485    0.40539    1.33708   1.00
H2       0.33794    0.44496    1.35332   1.00
H2       0.39752    0.41553    1.26902   1.00
H2       0.43375    0.45138    1.27068   1.00
H2       0.43049    0.41709    1.30828   1.00
H2       0.49848    0.58856    1.26688   1.00
H2       0.51242    0.63780    1.26809   1.00
H2       0.46451    0.62477    1.28048   1.00
H2       0.53891    0.62543    1.20125   1.00
H2       0.51880    0.57873    1.19574   1.00
H2       0.50886    0.61566    1.16122   1.00
H2       0.38890    0.59360    1.10202   1.00
H2       0.38068    0.56593    1.14435   1.00
H2       0.36070    0.61335    1.14035   1.00
H2       0.45644    0.66838    1.14416   1.00
H2       0.43179    0.65255    1.10212   1.00
H2       0.40504    0.67335    1.14085   1.00
H2       0.39689    0.62006    1.28656   1.00
H2       0.35226    0.64263    1.27381   1.00
H2       0.36216    0.59497    1.25834   1.00
H2       0.37901    0.69931    1.24044   1.00
H2       0.42593    0.68513    1.25622   1.00
H2       0.41720    0.69618    1.20657   1.00
C4       0.50040    0.77084    1.00302   1.00
C4       0.49981    0.72912    1.00259   1.00
C3       0.48589    0.79364    1.03442   1.00
C3       0.48150    0.70616    1.03182   1.00
C3       0.51575    0.79123    0.97009   1.00
C3       0.51857    0.70886    0.97140   1.00
C2       0.50087    0.85512    1.00083   1.00
C2       0.49913    0.64488    0.99917   1.00
C3       0.48590    0.83462    1.03329   1.00
C3       0.48147    0.66519    1.03038   1.00
C3       0.51617    0.83258    0.96983   1.00
C3       0.51676    0.66762    0.96961   1.00
H1       0.47501    0.78115    1.05910   1.00
H1       0.46743    0.71852    1.05490   1.00
C5       0.53074    0.77020    0.93773   1.00
C5       0.53872    0.72980    0.94197   1.00
H1       0.47476    0.84955    1.05675   1.00
H1       0.46806    0.65010    1.05251   1.00
H1       0.52826    0.84680    0.94649   1.00
H1       0.52816    0.65368    0.94582   1.00
O3       0.53942    0.78961    0.90360   1.00
O3       0.56335    0.71099    0.91615   1.00
Si1      0.50678    0.79247    0.86900   1.00
Si1      0.60841    0.70279    0.92918   1.00
C6       0.53241    0.82538    0.83877   1.00
C6       0.50331    0.74598    0.84724   1.00
C6       0.46204    0.81253    0.88480   1.00
C6       0.62309    0.71693    0.97658   1.00
C6       0.61283    0.65198    0.92440   1.00
C6       0.63868    0.72477    0.89393   1.00
C6       0.55028    0.86194    0.85968   1.00
H2       0.55741    0.80791    0.82950   1.00
C6       0.51369    0.84147    0.80017   1.00
H2       0.53193    0.73358    0.85361   1.00
C6       0.47294    0.71634    0.86408   1.00
C6       0.49863    0.74336    0.80188   1.00
H2       0.47158    0.83831    0.90098   1.00
C6       0.43335    0.82772    0.85259   1.00
C6       0.43524    0.78849    0.91323   1.00
C6       0.61808    0.76071    0.98844   1.00
C6       0.60967    0.69225    1.01264   1.00
H2       0.65456    0.71212    0.97559   1.00
H2       0.59494    0.64051    0.94811   1.00
C6       0.59550    0.63378    0.88623   1.00
C6       0.65441    0.63393    0.92972   1.00
H2       0.63919    0.70375    0.86999   1.00
C6       0.62332    0.76336    0.87537   1.00
C6       0.68239    0.73244    0.90487   1.00
H2       0.56933    0.85346    0.88379   1.00
H2       0.52744    0.88090    0.87135   1.00
H2       0.56810    0.87917    0.83960   1.00
H2       0.53632    0.84608    0.77815   1.00
H2       0.49217    0.82178    0.78771   1.00
H2       0.49942    0.86964    0.80449   1.00
H2       0.47929    0.68672    0.85402   1.00
H2       0.47357    0.71532    0.89580   1.00
H2       0.44337    0.72352    0.85466   1.00
H2       0.52220    0.75862    0.78685   1.00
H2       0.49984    0.71308    0.79182   1.00
H2       0.47070    0.75550    0.79247   1.00
H2       0.42742    0.80514    0.83089   1.00
H2       0.40539    0.83708    0.86485   1.00
H2       0.44496    0.85332    0.83794   1.00
H2       0.41553    0.76902    0.89752   1.00
H2       0.45138    0.77068    0.93375   1.00
H2       0.41709    0.80828    0.93049   1.00
H2       0.58856    0.76688    0.99848   1.00
H2       0.63780    0.76809    1.01242   1.00
H2       0.62477    0.78048    0.96451   1.00
H2       0.62543    0.70125    1.03891   1.00
H2       0.57873    0.69574    1.01880   1.00
H2       0.61566    0.66122    1.00886   1.00
H2       0.59360    0.60202    0.88890   1.00
H2       0.56593    0.64435    0.88068   1.00
H2       0.61335    0.64035    0.86070   1.00
H2       0.66838    0.64416    0.95644   1.00
H2       0.65255    0.60212    0.93179   1.00
H2       0.67335    0.64085    0.90504   1.00
H2       0.62006    0.78656    0.89689   1.00
H2       0.64263    0.77381    0.85226   1.00
H2       0.59497    0.75834    0.86216   1.00
H2       0.69931    0.74044    0.87901   1.00
H2       0.68513    0.75622    0.92593   1.00
H2       0.69618    0.70657    0.91720   1.00
C4       0.22916    0.50302    0.99960   1.00
C4       0.27088    0.50259    1.00019   1.00
C3       0.20636    0.53442    1.01411   1.00
C3       0.29384    0.53182    1.01850   1.00
C3       0.20877    0.47009    0.98425   1.00
C3       0.29114    0.47140    0.98143   1.00
C2       0.14488    0.50083    0.99913   1.00
C2       0.35512    0.49917    1.00087   1.00
C3       0.16538    0.53329    1.01410   1.00
C3       0.33481    0.53038    1.01853   1.00
C3       0.16742    0.46983    0.98383   1.00
C3       0.33238    0.46961    0.98324   1.00
H1       0.21885    0.55910    1.02499   1.00
H1       0.28148    0.55490    1.03257   1.00
C5       0.22980    0.43773    0.96926   1.00
C5       0.27020    0.44197    0.96128   1.00
H1       0.15045    0.55675    1.02524   1.00
H1       0.34990    0.55251    1.03194   1.00
H1       0.15320    0.44649    0.97174   1.00
H1       0.34632    0.44582    0.97184   1.00
O3       0.21039    0.40360    0.96058   1.00
O3       0.28901    0.41615    0.93665   1.00
Si1      0.20753    0.36900    0.99322   1.00
Si1      0.29721    0.42918    0.89159   1.00
C6       0.17462    0.33877    0.96759   1.00
C6       0.25402    0.34724    0.99669   1.00
C6       0.18747    0.38480    1.03796   1.00
C6       0.28307    0.47658    0.87691   1.00
C6       0.34802    0.42440    0.88717   1.00
C6       0.27523    0.39393    0.86132   1.00
C6       0.13806    0.35968    0.94972   1.00
H2       0.19209    0.32950    0.94259   1.00
C6       0.15853    0.30017    0.98631   1.00
H2       0.26642    0.35361    0.96807   1.00
C6       0.28366    0.36408    1.02706   1.00
C6       0.25664    0.30188    1.00137   1.00
H2       0.16169    0.40098    1.02842   1.00
C6       0.17228    0.35259    1.06665   1.00
C6       0.21151    0.41323    1.06476   1.00
C6       0.23929    0.48844    0.88192   1.00
C6       0.30775    0.51264    0.89033   1.00
H2       0.28788    0.47559    0.84544   1.00
H2       0.35949    0.44811    0.90506   1.00
C6       0.36622    0.38623    0.90450   1.00
C6       0.36607    0.42972    0.84559   1.00
H2       0.29625    0.36999    0.86081   1.00
C6       0.23664    0.37537    0.87668   1.00
C6       0.26756    0.40487    0.81761   1.00
H2       0.14654    0.38379    0.93067   1.00
H2       0.11910    0.37135    0.97256   1.00
H2       0.12083    0.33960    0.93190   1.00
H2       0.15392    0.27815    0.96368   1.00
H2       0.17822    0.28771    1.00783   1.00
H2       0.13036    0.30449    1.00058   1.00
H2       0.31328    0.35402    1.02071   1.00
H2       0.28468    0.39580    1.02643   1.00
H2       0.27648    0.35466    1.05663   1.00
H2       0.24138    0.28685    0.97780   1.00
H2       0.28692    0.29182    1.00016   1.00
H2       0.24450    0.29247    1.02930   1.00
H2       0.19486    0.33089    1.07258   1.00
H2       0.16292    0.36485    1.09461   1.00
H2       0.14668    0.33794    1.05504   1.00
H2       0.23098    0.39752    1.08447   1.00
H2       0.22932    0.43375    1.04862   1.00
H2       0.19172    0.43049    1.08291   1.00
H2       0.23312    0.49848    0.91144   1.00
H2       0.23191    0.51242    0.86220   1.00
H2       0.21952    0.46451    0.87523   1.00
H2       0.29875    0.53891    0.87457   1.00
H2       0.30426    0.51880    0.92127   1.00
H2       0.33878    0.50886    0.88434   1.00
H2       0.39798    0.38890    0.90640   1.00
H2       0.35565    0.38068    0.93407   1.00
H2       0.35965    0.36070    0.88665   1.00
H2       0.35584    0.45644    0.83162   1.00
H2       0.39788    0.43179    0.84745   1.00
H2       0.35915    0.40504    0.82665   1.00
H2       0.21344    0.39689    0.87994   1.00
H2       0.22619    0.35226    0.85737   1.00
H2       0.24166    0.36216    0.90503   1.00
H2       0.25956    0.37901    0.80069   1.00
H2       0.24378    0.42593    0.81487   1.00
H2       0.29343    0.41720    0.80382   1.00
C4       0.77084    0.50302    1.00040   1.00
C4       0.72912    0.50259    0.99981   1.00
C3       0.79364    0.53442    0.98589   1.00
C3       0.70616    0.53182    0.98150   1.00
C3       0.79123    0.47009    1.01575   1.00
C3       0.70886    0.47140    1.01857   1.00
C2       0.85512    0.50083    1.00087   1.00
C2       0.64488    0.49917    0.99913   1.00
C3       0.83462    0.53329    0.98590   1.00
C3       0.66519    0.53038    0.98147   1.00
C3       0.83258    0.46983    1.01617   1.00
C3       0.66762    0.46961    1.01676   1.00
H1       0.78115    0.55910    0.97501   1.00
H1       0.71852    0.55490    0.96743   1.00
C5       0.77020    0.43773    1.03074   1.00
C5       0.72980    0.44197    1.03872   1.00
H1       0.84955    0.55675    0.97476   1.00
H1       0.65010    0.55251    0.96806   1.00
H1       0.84680    0.44649    1.02826   1.00
H1       0.65368    0.44582    1.02816   1.00
O3       0.78961    0.40360    1.03942   1.00
O3       0.71099    0.41615    1.06335   1.00
Si1      0.79247    0.36900    1.00678   1.00
Si1      0.70279    0.42918    1.10841   1.00
C6       0.82538    0.33877    1.03241   1.00
C6       0.74598    0.34724    1.00331   1.00
C6       0.81253    0.38480    0.96204   1.00
C6       0.71693    0.47658    1.12309   1.00
C6       0.65198    0.42440    1.11283   1.00
C6       0.72477    0.39393    1.13868   1.00
C6       0.86194    0.35968    1.05028   1.00
H2       0.80791    0.32950    1.05741   1.00
C6       0.84147    0.30017    1.01369   1.00
H2       0.73358    0.35361    1.03193   1.00
C6       0.71634    0.36408    0.97294   1.00
C6       0.74336    0.30188    0.99863   1.00
H2       0.83831    0.40098    0.97158   1.00
C6       0.82772    0.35259    0.93335   1.00
C6       0.78849    0.41323    0.93524   1.00
C6       0.76071    0.48844    1.11808   1.00
C6       0.69225    0.51264    1.10967   1.00
H2       0.71212    0.47559    1.15456   1.00
H2       0.64051    0.44811    1.09494   1.00
C6       0.63378    0.38623    1.09550   1.00
C6       0.63393    0.42972    1.15441   1.00
H2       0.70375    0.36999    1.13919   1.00
C6       0.76336    0.37537    1.12332   1.00
C6       0.73244    0.40487    1.18239   1.00
H2       0.85346    0.38379    1.06933   1.00
H2       0.88090    0.37135    1.02744   1.00
H2       0.87917    0.33960    1.06810   1.00
H2       0.84608    0.27815    1.03632   1.00
H2       0.82178    0.28771    0.99217   1.00
H2       0.86964    0.30449    0.99942   1.00
H2       0.68672    0.35402    0.97929   1.00
H2       0.71532    0.39580    0.97357   1.00
H2       0.72352    0.35466    0.94337   1.00
H2       0.75862    0.28685    1.02220   1.00
H2       0.71308    0.29182    0.99984   1.00
H2       0.75550    0.29247    0.97070   1.00
H2       0.80514    0.33089    0.92742   1.00
H2       0.83708    0.36485    0.90539   1.00
H2       0.85332    0.33794    0.94496   1.00
H2       0.76902    0.39752    0.91553   1.00
H2       0.77068    0.43375    0.95138   1.00
H2       0.80828    0.43049    0.91709   1.00
H2       0.76688    0.49848    1.08856   1.00
H2       0.76809    0.51242    1.13780   1.00
H2       0.78048    0.46451    1.12477   1.00
H2       0.70125    0.53891    1.12543   1.00
H2       0.69574    0.51880    1.07873   1.00
H2       0.66122    0.50886    1.11566   1.00
H2       0.60202    0.38890    1.09360   1.00
H2       0.64435    0.38068    1.06593   1.00
H2       0.64035    0.36070    1.11335   1.00
H2       0.64416    0.45644    1.16838   1.00
H2       0.60212    0.43179    1.15255   1.00
H2       0.64085    0.40504    1.17335   1.00
H2       0.78656    0.39689    1.12006   1.00
H2       0.77381    0.35226    1.14263   1.00
H2       0.75834    0.36216    1.09497   1.00
H2       0.74044    0.37901    1.19931   1.00
H2       0.75622    0.42593    1.18513   1.00
H2       0.70657    0.41720    1.19618   1.00
C4       0.49960    0.22916    1.00302   1.00
C4       0.50019    0.27088    1.00259   1.00
C3       0.51411    0.20636    1.03442   1.00
C3       0.51850    0.29384    1.03182   1.00
C3       0.48425    0.20877    0.97009   1.00
C3       0.48143    0.29114    0.97140   1.00
C2       0.49913    0.14488    1.00083   1.00
C2       0.50087    0.35512    0.99917   1.00
C3       0.51410    0.16538    1.03329   1.00
C3       0.51853    0.33481    1.03038   1.00
C3       0.48383    0.16742    0.96983   1.00
C3       0.48324    0.33238    0.96961   1.00
H1       0.52499    0.21885    1.05910   1.00
H1       0.53257    0.28148    1.05490   1.00
C5       0.46926    0.22980    0.93773   1.00
C5       0.46128    0.27020    0.94197   1.00
H1       0.52524    0.15045    1.05675   1.00
H1       0.53194    0.34990    1.05251   1.00
H1       0.47174    0.15320    0.94649   1.00
H1       0.47184    0.34632    0.94582   1.00
O3       0.46058    0.21039    0.90360   1.00
O3       0.43665    0.28901    0.91615   1.00
Si1      0.49322    0.20753    0.86900   1.00
Si1      0.39159    0.29721    0.92918   1.00
C6       0.46759    0.17462    0.83877   1.00
C6       0.49669    0.25402    0.84724   1.00
C6       0.53796    0.18747    0.88480   1.00
C6       0.37691    0.28307    0.97658   1.00
C6       0.38717    0.34802    0.92440   1.00
C6       0.36132    0.27523    0.89393   1.00
C6       0.44972    0.13806    0.85968   1.00
H2       0.44259    0.19209    0.82950   1.00
C6       0.48631    0.15853    0.80017   1.00
H2       0.46807    0.26642    0.85361   1.00
C6       0.52706    0.28366    0.86408   1.00
C6       0.50137    0.25664    0.80188   1.00
H2       0.52842    0.16169    0.90098   1.00
C6       0.56665    0.17228    0.85259   1.00
C6       0.56476    0.21151    0.91323   1.00
C6       0.38192    0.23929    0.98844   1.00
C6       0.39033    0.30775    1.01264   1.00
H2       0.34544    0.28788    0.97559   1.00
H2       0.40506    0.35949    0.94811   1.00
C6       0.40450    0.36622    0.88623   1.00
C6       0.34559    0.36607    0.92972   1.00
H2       0.36081    0.29625    0.86999   1.00
C6       0.37668    0.23664    0.87537   1.00
C6       0.31761    0.26756    0.90487   1.00
H2       0.43067    0.14654    0.88379   1.00
H2       0.47256    0.11910    0.87135   1.00
H2       0.43190    0.12083    0.83960   1.00
H2       0.46368    0.15392    0.77815   1.00
H2       0.50783    0.17822    0.78771   1.00
H2       0.50058    0.13036    0.80449   1.00
H2       0.52071    0.31328    0.85402   1.00
H2       0.52643    0.28468    0.89580   1.00
H2       0.55663    0.27648    0.85466   1.00
H2       0.47780    0.24138    0.78685   1.00
H2       0.50016    0.28692    0.79182   1.00
H2       0.52930    0.24450    0.79247   1.00
H2       0.57258    0.19486    0.83089   1.00
H2       0.59461    0.16292    0.86485   1.00
H2       0.55504    0.14668    0.83794   1.00
H2       0.58447    0.23098    0.89752   1.00
H2       0.54862    0.22932    0.93375   1.00
H2       0.58291    0.19172    0.93049   1.00
H2       0.41144    0.23312    0.99848   1.00
H2       0.36220    0.23191    1.01242   1.00
H2       0.37523    0.21952    0.96451   1.00
H2       0.37457    0.29875    1.03891   1.00
H2       0.42127    0.30426    1.01880   1.00
H2       0.38434    0.33878    1.00886   1.00
H2       0.40640    0.39798    0.88890   1.00
H2       0.43407    0.35565    0.88068   1.00
H2       0.38665    0.35965    0.86070   1.00
H2       0.33162    0.35584    0.95644   1.00
H2       0.34745    0.39788    0.93179   1.00
H2       0.32665    0.35915    0.90504   1.00
H2       0.37994    0.21344    0.89689   1.00
H2       0.35737    0.22619    0.85226   1.00
H2       0.40503    0.24166    0.86216   1.00
H2       0.30069    0.25956    0.87901   1.00
H2       0.31487    0.24378    0.92593   1.00
H2       0.30382    0.29343    0.91720   1.00
C4       0.50302    0.49960    0.72916   1.00
C4       0.50259    0.50019    0.77088   1.00
C3       0.53442    0.51411    0.70636   1.00
C3       0.53182    0.51850    0.79384   1.00
C3       0.47009    0.48425    0.70877   1.00
C3       0.47140    0.48143    0.79114   1.00
C2       0.50083    0.49913    0.64488   1.00
C2       0.49917    0.50087    0.85512   1.00
C3       0.53329    0.51410    0.66538   1.00
C3       0.53038    0.51853    0.83481   1.00
C3       0.46983    0.48383    0.66742   1.00
C3       0.46961    0.48324    0.83238   1.00
H1       0.55910    0.52499    0.71885   1.00
H1       0.55490    0.53257    0.78148   1.00
C5       0.43773    0.46926    0.72980   1.00
C5       0.44197    0.46128    0.77020   1.00
H1       0.55675    0.52524    0.65045   1.00
H1       0.55251    0.53194    0.84990   1.00
H1       0.44649    0.47174    0.65320   1.00
H1       0.44582    0.47184    0.84632   1.00
O3       0.40360    0.46058    0.71039   1.00
O3       0.41615    0.43665    0.78901   1.00
Si1      0.36900    0.49322    0.70753   1.00
Si1      0.42918    0.39159    0.79721   1.00
C6       0.33877    0.46759    0.67462   1.00
C6       0.34724    0.49669    0.75402   1.00
C6       0.38480    0.53796    0.68747   1.00
C6       0.47658    0.37691    0.78307   1.00
C6       0.42440    0.38717    0.84802   1.00
C6       0.39393    0.36132    0.77523   1.00
C6       0.35968    0.44972    0.63806   1.00
H2       0.32950    0.44259    0.69209   1.00
C6       0.30017    0.48631    0.65853   1.00
H2       0.35361    0.46807    0.76642   1.00
C6       0.36408    0.52706    0.78366   1.00
C6       0.30188    0.50137    0.75664   1.00
H2       0.40098    0.52842    0.66169   1.00
C6       0.35259    0.56665    0.67228   1.00
C6       0.41323    0.56476    0.71151   1.00
C6       0.48844    0.38192    0.73929   1.00
C6       0.51264    0.39033    0.80775   1.00
H2       0.47559    0.34544    0.78788   1.00
H2       0.44811    0.40506    0.85949   1.00
C6       0.38623    0.40450    0.86622   1.00
C6       0.42972    0.34559    0.86607   1.00
H2       0.36999    0.36081    0.79625   1.00
C6       0.37537    0.37668    0.73664   1.00
C6       0.40487    0.31761    0.76756   1.00
H2       0.38379    0.43067    0.64654   1.00
H2       0.37135    0.47256    0.61910   1.00
H2       0.33960    0.43190    0.62083   1.00
H2       0.27815    0.46368    0.65392   1.00
H2       0.28771    0.50783    0.67822   1.00
H2       0.30449    0.50058    0.63036   1.00
H2       0.35402    0.52071    0.81328   1.00
H2       0.39580    0.52643    0.78468   1.00
H2       0.35466    0.55663    0.77648   1.00
H2       0.28685    0.47780    0.74138   1.00
H2       0.29182    0.50016    0.78692   1.00
H2       0.29247    0.52930    0.74450   1.00
H2       0.33089    0.57258    0.69486   1.00
H2       0.36485    0.59461    0.66292   1.00
H2       0.33794    0.55504    0.64668   1.00
H2       0.39752    0.58447    0.73098   1.00
H2       0.43375    0.54862    0.72932   1.00
H2       0.43049    0.58291    0.69172   1.00
H2       0.49848    0.41144    0.73312   1.00
H2       0.51242    0.36220    0.73191   1.00
H2       0.46451    0.37523    0.71952   1.00
H2       0.53891    0.37457    0.79875   1.00
H2       0.51880    0.42127    0.80426   1.00
H2       0.50886    0.38434    0.83878   1.00
H2       0.38890    0.40640    0.89798   1.00
H2       0.38068    0.43407    0.85565   1.00
H2       0.36070    0.38665    0.85965   1.00
H2       0.45644    0.33162    0.85584   1.00
H2       0.43179    0.34745    0.89788   1.00
H2       0.40504    0.32665    0.85915   1.00
H2       0.39689    0.37994    0.71344   1.00
H2       0.35226    0.35737    0.72619   1.00
H2       0.36216    0.40503    0.74166   1.00
H2       0.37901    0.30069    0.75956   1.00
H2       0.42593    0.31487    0.74378   1.00
H2       0.41720    0.30382    0.79343   1.00
C4       0.50302    1.00040    0.77084   1.00
C4       0.50259    0.99981    0.72912   1.00
C3       0.53442    0.98589    0.79364   1.00
C3       0.53182    0.98150    0.70616   1.00
C3       0.47009    1.01575    0.79123   1.00
C3       0.47140    1.01857    0.70886   1.00
C2       0.50083    1.00087    0.85512   1.00
C2       0.49917    0.99913    0.64488   1.00
C3       0.53329    0.98590    0.83462   1.00
C3       0.53038    0.98147    0.66519   1.00
C3       0.46983    1.01617    0.83258   1.00
C3       0.46961    1.01676    0.66762   1.00
H1       0.55910    0.97501    0.78115   1.00
H1       0.55490    0.96743    0.71852   1.00
C5       0.43773    1.03074    0.77020   1.00
C5       0.44197    1.03872    0.72980   1.00
H1       0.55675    0.97476    0.84955   1.00
H1       0.55251    0.96806    0.65010   1.00
H1       0.44649    1.02826    0.84680   1.00
H1       0.44582    1.02816    0.65368   1.00
O3       0.40360    1.03942    0.78961   1.00
O3       0.41615    1.06335    0.71099   1.00
Si1      0.36900    1.00678    0.79247   1.00
Si1      0.42918    1.10841    0.70279   1.00
C6       0.33877    1.03241    0.82538   1.00
C6       0.34724    1.00331    0.74598   1.00
C6       0.38480    0.96204    0.81253   1.00
C6       0.47658    1.12309    0.71693   1.00
C6       0.42440    1.11283    0.65198   1.00
C6       0.39393    1.13868    0.72477   1.00
C6       0.35968    1.05028    0.86194   1.00
H2       0.32950    1.05741    0.80791   1.00
C6       0.30017    1.01369    0.84147   1.00
H2       0.35361    1.03193    0.73358   1.00
C6       0.36408    0.97294    0.71634   1.00
C6       0.30188    0.99863    0.74336   1.00
H2       0.40098    0.97158    0.83831   1.00
C6       0.35259    0.93335    0.82772   1.00
C6       0.41323    0.93524    0.78849   1.00
C6       0.48844    1.11808    0.76071   1.00
C6       0.51264    1.10967    0.69225   1.00
H2       0.47559    1.15456    0.71212   1.00
H2       0.44811    1.09494    0.64051   1.00
C6       0.38623    1.09550    0.63378   1.00
C6       0.42972    1.15441    0.63393   1.00
H2       0.36999    1.13919    0.70375   1.00
C6       0.37537    1.12332    0.76336   1.00
C6       0.40487    1.18239    0.73244   1.00
H2       0.38379    1.06933    0.85346   1.00
H2       0.37135    1.02744    0.88090   1.00
H2       0.33960    1.06810    0.87917   1.00
H2       0.27815    1.03632    0.84608   1.00
H2       0.28771    0.99217    0.82178   1.00
H2       0.30449    0.99942    0.86964   1.00
H2       0.35402    0.97929    0.68672   1.00
H2       0.39580    0.97357    0.71532   1.00
H2       0.35466    0.94337    0.72352   1.00
H2       0.28685    1.02220    0.75862   1.00
H2       0.29182    0.99984    0.71308   1.00
H2       0.29247    0.97070    0.75550   1.00
H2       0.33089    0.92742    0.80514   1.00
H2       0.36485    0.90539    0.83708   1.00
H2       0.33794    0.94496    0.85332   1.00
H2       0.39752    0.91553    0.76902   1.00
H2       0.43375    0.95138    0.77068   1.00
H2       0.43049    0.91709    0.80828   1.00
H2       0.49848    1.08856    0.76688   1.00
H2       0.51242    1.13780    0.76809   1.00
H2       0.46451    1.12477    0.78048   1.00
H2       0.53891    1.12543    0.70125   1.00
H2       0.51880    1.07873    0.69574   1.00
H2       0.50886    1.11566    0.66122   1.00
H2       0.38890    1.09360    0.60202   1.00
H2       0.38068    1.06593    0.64435   1.00
H2       0.36070    1.11335    0.64035   1.00
H2       0.45644    1.16838    0.64416   1.00
H2       0.43179    1.15255    0.60212   1.00
H2       0.40504    1.17335    0.64085   1.00
H2       0.39689    1.12006    0.78656   1.00
H2       0.35226    1.14263    0.77381   1.00
H2       0.36216    1.09497    0.75834   1.00
H2       0.37901    1.19931    0.74044   1.00
H2       0.42593    1.18513    0.75622   1.00
H2       0.41720    1.19618    0.70657   1.00
C4       0.50040    1.27084    0.50302   1.00
C4       0.49981    1.22912    0.50259   1.00
C3       0.48589    1.29364    0.53442   1.00
C3       0.48150    1.20616    0.53182   1.00
C3       0.51575    1.29123    0.47009   1.00
C3       0.51857    1.20886    0.47140   1.00
C2       0.50087    1.35512    0.50083   1.00
C2       0.49913    1.14488    0.49917   1.00
C3       0.48590    1.33462    0.53329   1.00
C3       0.48147    1.16519    0.53038   1.00
C3       0.51617    1.33258    0.46983   1.00
C3       0.51676    1.16762    0.46961   1.00
H1       0.47501    1.28115    0.55910   1.00
H1       0.46743    1.21852    0.55490   1.00
C5       0.53074    1.27020    0.43773   1.00
C5       0.53872    1.22980    0.44197   1.00
H1       0.47476    1.34955    0.55675   1.00
H1       0.46806    1.15010    0.55251   1.00
H1       0.52826    1.34680    0.44649   1.00
H1       0.52816    1.15368    0.44582   1.00
O3       0.53942    1.28961    0.40360   1.00
O3       0.56335    1.21099    0.41615   1.00
Si1      0.50678    1.29247    0.36900   1.00
Si1      0.60841    1.20279    0.42918   1.00
C6       0.53241    1.32538    0.33877   1.00
C6       0.50331    1.24598    0.34724   1.00
C6       0.46204    1.31253    0.38480   1.00
C6       0.62309    1.21693    0.47658   1.00
C6       0.61283    1.15198    0.42440   1.00
C6       0.63868    1.22477    0.39393   1.00
C6       0.55028    1.36194    0.35968   1.00
H2       0.55741    1.30791    0.32950   1.00
C6       0.51369    1.34147    0.30017   1.00
H2       0.53193    1.23358    0.35361   1.00
C6       0.47294    1.21634    0.36408   1.00
C6       0.49863    1.24336    0.30188   1.00
H2       0.47158    1.33831    0.40098   1.00
C6       0.43335    1.32772    0.35259   1.00
C6       0.43524    1.28849    0.41323   1.00
C6       0.61808    1.26071    0.48844   1.00
C6       0.60967    1.19225    0.51264   1.00
H2       0.65456    1.21212    0.47559   1.00
H2       0.59494    1.14051    0.44811   1.00
C6       0.59550    1.13378    0.38623   1.00
C6       0.65441    1.13393    0.42972   1.00
H2       0.63919    1.20375    0.36999   1.00
C6       0.62332    1.26336    0.37537   1.00
C6       0.68239    1.23244    0.40487   1.00
H2       0.56933    1.35346    0.38379   1.00
H2       0.52744    1.38090    0.37135   1.00
H2       0.56810    1.37917    0.33960   1.00
H2       0.53632    1.34608    0.27815   1.00
H2       0.49217    1.32178    0.28771   1.00
H2       0.49942    1.36964    0.30449   1.00
H2       0.47929    1.18672    0.35402   1.00
H2       0.47357    1.21532    0.39580   1.00
H2       0.44337    1.22352    0.35466   1.00
H2       0.52220    1.25862    0.28685   1.00
H2       0.49984    1.21308    0.29182   1.00
H2       0.47070    1.25550    0.29247   1.00
H2       0.42742    1.30514    0.33089   1.00
H2       0.40539    1.33708    0.36485   1.00
H2       0.44496    1.35332    0.33794   1.00
H2       0.41553    1.26902    0.39752   1.00
H2       0.45138    1.27068    0.43375   1.00
H2       0.41709    1.30828    0.43049   1.00
H2       0.58856    1.26688    0.49848   1.00
H2       0.63780    1.26809    0.51242   1.00
H2       0.62477    1.28048    0.46451   1.00
H2       0.62543    1.20125    0.53891   1.00
H2       0.57873    1.19574    0.51880   1.00
H2       0.61566    1.16122    0.50886   1.00
H2       0.59360    1.10202    0.38890   1.00
H2       0.56593    1.14435    0.38068   1.00
H2       0.61335    1.14035    0.36070   1.00
H2       0.66838    1.14416    0.45644   1.00
H2       0.65255    1.10212    0.43179   1.00
H2       0.67335    1.14085    0.40504   1.00
H2       0.62006    1.28656    0.39689   1.00
H2       0.64263    1.27381    0.35226   1.00
H2       0.59497    1.25834    0.36216   1.00
H2       0.69931    1.24044    0.37901   1.00
H2       0.68513    1.25622    0.42593   1.00
H2       0.69618    1.20657    0.41720   1.00
C4       0.22916    1.00302    0.49960   1.00
C4       0.27088    1.00259    0.50019   1.00
C3       0.20636    1.03442    0.51411   1.00
C3       0.29384    1.03182    0.51850   1.00
C3       0.20877    0.97009    0.48425   1.00
C3       0.29114    0.97140    0.48143   1.00
C2       0.14488    1.00083    0.49913   1.00
C2       0.35512    0.99917    0.50087   1.00
C3       0.16538    1.03329    0.51410   1.00
C3       0.33481    1.03038    0.51853   1.00
C3       0.16742    0.96983    0.48383   1.00
C3       0.33238    0.96961    0.48324   1.00
H1       0.21885    1.05910    0.52499   1.00
H1       0.28148    1.05490    0.53257   1.00
C5       0.22980    0.93773    0.46926   1.00
C5       0.27020    0.94197    0.46128   1.00
H1       0.15045    1.05675    0.52524   1.00
H1       0.34990    1.05251    0.53194   1.00
H1       0.15320    0.94649    0.47174   1.00
H1       0.34632    0.94582    0.47184   1.00
O3       0.21039    0.90360    0.46058   1.00
O3       0.28901    0.91615    0.43665   1.00
Si1      0.20753    0.86900    0.49322   1.00
Si1      0.29721    0.92918    0.39159   1.00
C6       0.17462    0.83877    0.46759   1.00
C6       0.25402    0.84724    0.49669   1.00
C6       0.18747    0.88480    0.53796   1.00
C6       0.28307    0.97658    0.37691   1.00
C6       0.34802    0.92440    0.38717   1.00
C6       0.27523    0.89393    0.36132   1.00
C6       0.13806    0.85968    0.44972   1.00
H2       0.19209    0.82950    0.44259   1.00
C6       0.15853    0.80017    0.48631   1.00
H2       0.26642    0.85361    0.46807   1.00
C6       0.28366    0.86408    0.52706   1.00
C6       0.25664    0.80188    0.50137   1.00
H2       0.16169    0.90098    0.52842   1.00
C6       0.17228    0.85259    0.56665   1.00
C6       0.21151    0.91323    0.56476   1.00
C6       0.23929    0.98844    0.38192   1.00
C6       0.30775    1.01264    0.39033   1.00
H2       0.28788    0.97559    0.34544   1.00
H2       0.35949    0.94811    0.40506   1.00
C6       0.36622    0.88623    0.40450   1.00
C6       0.36607    0.92972    0.34559   1.00
H2       0.29625    0.86999    0.36081   1.00
C6       0.23664    0.87537    0.37668   1.00
C6       0.26756    0.90487    0.31761   1.00
H2       0.14654    0.88379    0.43067   1.00
H2       0.11910    0.87135    0.47256   1.00
H2       0.12083    0.83960    0.43190   1.00
H2       0.15392    0.77815    0.46368   1.00
H2       0.17822    0.78771    0.50783   1.00
H2       0.13036    0.80449    0.50058   1.00
H2       0.31328    0.85402    0.52071   1.00
H2       0.28468    0.89580    0.52643   1.00
H2       0.27648    0.85466    0.55663   1.00
H2       0.24138    0.78685    0.47780   1.00
H2       0.28692    0.79182    0.50016   1.00
H2       0.24450    0.79247    0.52930   1.00
H2       0.19486    0.83089    0.57258   1.00
H2       0.16292    0.86485    0.59461   1.00
H2       0.14668    0.83794    0.55504   1.00
H2       0.23098    0.89752    0.58447   1.00
H2       0.22932    0.93375    0.54862   1.00
H2       0.19172    0.93049    0.58291   1.00
H2       0.23312    0.99848    0.41144   1.00
H2       0.23191    1.01242    0.36220   1.00
H2       0.21952    0.96451    0.37523   1.00
H2       0.29875    1.03891    0.37457   1.00
H2       0.30426    1.01880    0.42127   1.00
H2       0.33878    1.00886    0.38434   1.00
H2       0.39798    0.88890    0.40640   1.00
H2       0.35565    0.88068    0.43407   1.00
H2       0.35965    0.86070    0.38665   1.00
H2       0.35584    0.95644    0.33162   1.00
H2       0.39788    0.93179    0.34745   1.00
H2       0.35915    0.90504    0.32665   1.00
H2       0.21344    0.89689    0.37994   1.00
H2       0.22619    0.85226    0.35737   1.00
H2       0.24166    0.86216    0.40503   1.00
H2       0.25956    0.87901    0.30069   1.00
H2       0.24378    0.92593    0.31487   1.00
H2       0.29343    0.91720    0.30382   1.00
C4       0.77084    1.00302    0.50040   1.00
C4       0.72912    1.00259    0.49981   1.00
C3       0.79364    1.03442    0.48589   1.00
C3       0.70616    1.03182    0.48150   1.00
C3       0.79123    0.97009    0.51575   1.00
C3       0.70886    0.97140    0.51857   1.00
C2       0.85512    1.00083    0.50087   1.00
C2       0.64488    0.99917    0.49913   1.00
C3       0.83462    1.03329    0.48590   1.00
C3       0.66519    1.03038    0.48147   1.00
C3       0.83258    0.96983    0.51617   1.00
C3       0.66762    0.96961    0.51676   1.00
H1       0.78115    1.05910    0.47501   1.00
H1       0.71852    1.05490    0.46743   1.00
C5       0.77020    0.93773    0.53074   1.00
C5       0.72980    0.94197    0.53872   1.00
H1       0.84955    1.05675    0.47476   1.00
H1       0.65010    1.05251    0.46806   1.00
H1       0.84680    0.94649    0.52826   1.00
H1       0.65368    0.94582    0.52816   1.00
O3       0.78961    0.90360    0.53942   1.00
O3       0.71099    0.91615    0.56335   1.00
Si1      0.79247    0.86900    0.50678   1.00
Si1      0.70279    0.92918    0.60841   1.00
C6       0.82538    0.83877    0.53241   1.00
C6       0.74598    0.84724    0.50331   1.00
C6       0.81253    0.88480    0.46204   1.00
C6       0.71693    0.97658    0.62309   1.00
C6       0.65198    0.92440    0.61283   1.00
C6       0.72477    0.89393    0.63868   1.00
C6       0.86194    0.85968    0.55028   1.00
H2       0.80791    0.82950    0.55741   1.00
C6       0.84147    0.80017    0.51369   1.00
H2       0.73358    0.85361    0.53193   1.00
C6       0.71634    0.86408    0.47294   1.00
C6       0.74336    0.80188    0.49863   1.00
H2       0.83831    0.90098    0.47158   1.00
C6       0.82772    0.85259    0.43335   1.00
C6       0.78849    0.91323    0.43524   1.00
C6       0.76071    0.98844    0.61808   1.00
C6       0.69225    1.01264    0.60967   1.00
H2       0.71212    0.97559    0.65456   1.00
H2       0.64051    0.94811    0.59494   1.00
C6       0.63378    0.88623    0.59550   1.00
C6       0.63393    0.92972    0.65441   1.00
H2       0.70375    0.86999    0.63919   1.00
C6       0.76336    0.87537    0.62332   1.00
C6       0.73244    0.90487    0.68239   1.00
H2       0.85346    0.88379    0.56933   1.00
H2       0.88090    0.87135    0.52744   1.00
H2       0.87917    0.83960    0.56810   1.00
H2       0.84608    0.77815    0.53632   1.00
H2       0.82178    0.78771    0.49217   1.00
H2       0.86964    0.80449    0.49942   1.00
H2       0.68672    0.85402    0.47929   1.00
H2       0.71532    0.89580    0.47357   1.00
H2       0.72352    0.85466    0.44337   1.00
H2       0.75862    0.78685    0.52220   1.00
H2       0.71308    0.79182    0.49984   1.00
H2       0.75550    0.79247    0.47070   1.00
H2       0.80514    0.83089    0.42742   1.00
H2       0.83708    0.86485    0.40539   1.00
H2       0.85332    0.83794    0.44496   1.00
H2       0.76902    0.89752    0.41553   1.00
H2       0.77068    0.93375    0.45138   1.00
H2       0.80828    0.93049    0.41709   1.00
H2       0.76688    0.99848    0.58856   1.00
H2       0.76809    1.01242    0.63780   1.00
H2       0.78048    0.96451    0.62477   1.00
H2       0.70125    1.03891    0.62543   1.00
H2       0.69574    1.01880    0.57873   1.00
H2       0.66122    1.00886    0.61566   1.00
H2       0.60202    0.88890    0.59360   1.00
H2       0.64435    0.88068    0.56593   1.00
H2       0.64035    0.86070    0.61335   1.00
H2       0.64416    0.95644    0.66838   1.00
H2       0.60212    0.93179    0.65255   1.00
H2       0.64085    0.90504    0.67335   1.00
H2       0.78656    0.89689    0.62006   1.00
H2       0.77381    0.85226    0.64263   1.00
H2       0.75834    0.86216    0.59497   1.00
H2       0.74044    0.87901    0.69931   1.00
H2       0.75622    0.92593    0.68513   1.00
H2       0.70657    0.91720    0.69618   1.00
C4       0.49960    0.72916    0.50302   1.00
C4       0.50019    0.77088    0.50259   1.00
C3       0.51411    0.70636    0.53442   1.00
C3       0.51850    0.79384    0.53182   1.00
C3       0.48425    0.70877    0.47009   1.00
C3       0.48143    0.79114    0.47140   1.00
C2       0.49913    0.64488    0.50083   1.00
C2       0.50087    0.85512    0.49917   1.00
C3       0.51410    0.66538    0.53329   1.00
C3       0.51853    0.83481    0.53038   1.00
C3       0.48383    0.66742    0.46983   1.00
C3       0.48324    0.83238    0.46961   1.00
H1       0.52499    0.71885    0.55910   1.00
H1       0.53257    0.78148    0.55490   1.00
C5       0.46926    0.72980    0.43773   1.00
C5       0.46128    0.77020    0.44197   1.00
H1       0.52524    0.65045    0.55675   1.00
H1       0.53194    0.84990    0.55251   1.00
H1       0.47174    0.65320    0.44649   1.00
H1       0.47184    0.84632    0.44582   1.00
O3       0.46058    0.71039    0.40360   1.00
O3       0.43665    0.78901    0.41615   1.00
Si1      0.49322    0.70753    0.36900   1.00
Si1      0.39159    0.79721    0.42918   1.00
C6       0.46759    0.67462    0.33877   1.00
C6       0.49669    0.75402    0.34724   1.00
C6       0.53796    0.68747    0.38480   1.00
C6       0.37691    0.78307    0.47658   1.00
C6       0.38717    0.84802    0.42440   1.00
C6       0.36132    0.77523    0.39393   1.00
C6       0.44972    0.63806    0.35968   1.00
H2       0.44259    0.69209    0.32950   1.00
C6       0.48631    0.65853    0.30017   1.00
H2       0.46807    0.76642    0.35361   1.00
C6       0.52706    0.78366    0.36408   1.00
C6       0.50137    0.75664    0.30188   1.00
H2       0.52842    0.66169    0.40098   1.00
C6       0.56665    0.67228    0.35259   1.00
C6       0.56476    0.71151    0.41323   1.00
C6       0.38192    0.73929    0.48844   1.00
C6       0.39033    0.80775    0.51264   1.00
H2       0.34544    0.78788    0.47559   1.00
H2       0.40506    0.85949    0.44811   1.00
C6       0.40450    0.86622    0.38623   1.00
C6       0.34559    0.86607    0.42972   1.00
H2       0.36081    0.79625    0.36999   1.00
C6       0.37668    0.73664    0.37537   1.00
C6       0.31761    0.76756    0.40487   1.00
H2       0.43067    0.64654    0.38379   1.00
H2       0.47256    0.61910    0.37135   1.00
H2       0.43190    0.62083    0.33960   1.00
H2       0.46368    0.65392    0.27815   1.00
H2       0.50783    0.67822    0.28771   1.00
H2       0.50058    0.63036    0.30449   1.00
H2       0.52071    0.81328    0.35402   1.00
H2       0.52643    0.78468    0.39580   1.00
H2       0.55663    0.77648    0.35466   1.00
H2       0.47780    0.74138    0.28685   1.00
H2       0.50016    0.78692    0.29182   1.00
H2       0.52930    0.74450    0.29247   1.00
H2       0.57258    0.69486    0.33089   1.00
H2       0.59461    0.66292    0.36485   1.00
H2       0.55504    0.64668    0.33794   1.00
H2       0.58447    0.73098    0.39752   1.00
H2       0.54862    0.72932    0.43375   1.00
H2       0.58291    0.69172    0.43049   1.00
H2       0.41144    0.73312    0.49848   1.00
H2       0.36220    0.73191    0.51242   1.00
H2       0.37523    0.71952    0.46451   1.00
H2       0.37457    0.79875    0.53891   1.00
H2       0.42127    0.80426    0.51880   1.00
H2       0.38434    0.83878    0.50886   1.00
H2       0.40640    0.89798    0.38890   1.00
H2       0.43407    0.85565    0.38068   1.00
H2       0.38665    0.85965    0.36070   1.00
H2       0.33162    0.85584    0.45644   1.00
H2       0.34745    0.89788    0.43179   1.00
H2       0.32665    0.85915    0.40504   1.00
H2       0.37994    0.71344    0.39689   1.00
H2       0.35737    0.72619    0.35226   1.00
H2       0.40503    0.74166    0.36216   1.00
H2       0.30069    0.75956    0.37901   1.00
H2       0.31487    0.74378    0.42593   1.00
H2       0.30382    0.79343    0.41720   1.00
C4       0.50302    0.99960    0.22916   1.00
C4       0.50259    1.00019    0.27088   1.00
C3       0.53442    1.01411    0.20636   1.00
C3       0.53182    1.01850    0.29384   1.00
C3       0.47009    0.98425    0.20877   1.00
C3       0.47140    0.98143    0.29114   1.00
C2       0.50083    0.99913    0.14488   1.00
C2       0.49917    1.00087    0.35512   1.00
C3       0.53329    1.01410    0.16538   1.00
C3       0.53038    1.01853    0.33481   1.00
C3       0.46983    0.98383    0.16742   1.00
C3       0.46961    0.98324    0.33238   1.00
H1       0.55910    1.02499    0.21885   1.00
H1       0.55490    1.03257    0.28148   1.00
C5       0.43773    0.96926    0.22980   1.00
C5       0.44197    0.96128    0.27020   1.00
H1       0.55675    1.02524    0.15045   1.00
H1       0.55251    1.03194    0.34990   1.00
H1       0.44649    0.97174    0.15320   1.00
H1       0.44582    0.97184    0.34632   1.00
O3       0.40360    0.96058    0.21039   1.00
O3       0.41615    0.93665    0.28901   1.00
Si1      0.36900    0.99322    0.20753   1.00
Si1      0.42918    0.89159    0.29721   1.00
C6       0.33877    0.96759    0.17462   1.00
C6       0.34724    0.99669    0.25402   1.00
C6       0.38480    1.03796    0.18747   1.00
C6       0.47658    0.87691    0.28307   1.00
C6       0.42440    0.88717    0.34802   1.00
C6       0.39393    0.86132    0.27523   1.00
C6       0.35968    0.94972    0.13806   1.00
H2       0.32950    0.94259    0.19209   1.00
C6       0.30017    0.98631    0.15853   1.00
H2       0.35361    0.96807    0.26642   1.00
C6       0.36408    1.02706    0.28366   1.00
C6       0.30188    1.00137    0.25664   1.00
H2       0.40098    1.02842    0.16169   1.00
C6       0.35259    1.06665    0.17228   1.00
C6       0.41323    1.06476    0.21151   1.00
C6       0.48844    0.88192    0.23929   1.00
C6       0.51264    0.89033    0.30775   1.00
H2       0.47559    0.84544    0.28788   1.00
H2       0.44811    0.90506    0.35949   1.00
C6       0.38623    0.90450    0.36622   1.00
C6       0.42972    0.84559    0.36607   1.00
H2       0.36999    0.86081    0.29625   1.00
C6       0.37537    0.87668    0.23664   1.00
C6       0.40487    0.81761    0.26756   1.00
H2       0.38379    0.93067    0.14654   1.00
H2       0.37135    0.97256    0.11910   1.00
H2       0.33960    0.93190    0.12083   1.00
H2       0.27815    0.96368    0.15392   1.00
H2       0.28771    1.00783    0.17822   1.00
H2       0.30449    1.00058    0.13036   1.00
H2       0.35402    1.02071    0.31328   1.00
H2       0.39580    1.02643    0.28468   1.00
H2       0.35466    1.05663    0.27648   1.00
H2       0.28685    0.97780    0.24138   1.00
H2       0.29182    1.00016    0.28692   1.00
H2       0.29247    1.02930    0.24450   1.00
H2       0.33089    1.07258    0.19486   1.00
H2       0.36485    1.09461    0.16292   1.00
H2       0.33794    1.05504    0.14668   1.00
H2       0.39752    1.08447    0.23098   1.00
H2       0.43375    1.04862    0.22932   1.00
H2       0.43049    1.08291    0.19172   1.00
H2       0.49848    0.91144    0.23312   1.00
H2       0.51242    0.86220    0.23191   1.00
H2       0.46451    0.87523    0.21952   1.00
H2       0.53891    0.87457    0.29875   1.00
H2       0.51880    0.92127    0.30426   1.00
H2       0.50886    0.88434    0.33878   1.00
H2       0.38890    0.90640    0.39798   1.00
H2       0.38068    0.93407    0.35565   1.00
H2       0.36070    0.88665    0.35965   1.00
H2       0.45644    0.83162    0.35584   1.00
H2       0.43179    0.84745    0.39788   1.00
H2       0.40504    0.82665    0.35915   1.00
H2       0.39689    0.87994    0.21344   1.00
H2       0.35226    0.85737    0.22619   1.00
H2       0.36216    0.90503    0.24166   1.00
H2       0.37901    0.80069    0.25956   1.00
H2       0.42593    0.81487    0.24378   1.00
H2       0.41720    0.80382    0.29343   1.00
C4       1.00302    0.50040    0.77084   1.00
C4       1.00259    0.49981    0.72912   1.00
C3       1.03442    0.48589    0.79364   1.00
C3       1.03182    0.48150    0.70616   1.00
C3       0.97009    0.51575    0.79123   1.00
C3       0.97140    0.51857    0.70886   1.00
C2       1.00083    0.50087    0.85512   1.00
C2       0.99917    0.49913    0.64488   1.00
C3       1.03329    0.48590    0.83462   1.00
C3       1.03038    0.48147    0.66519   1.00
C3       0.96983    0.51617    0.83258   1.00
C3       0.96961    0.51676    0.66762   1.00
H1       1.05910    0.47501    0.78115   1.00
H1       1.05490    0.46743    0.71852   1.00
C5       0.93773    0.53074    0.77020   1.00
C5       0.94197    0.53872    0.72980   1.00
H1       1.05675    0.47476    0.84955   1.00
H1       1.05251    0.46806    0.65010   1.00
H1       0.94649    0.52826    0.84680   1.00
H1       0.94582    0.52816    0.65368   1.00
O3       0.90360    0.53942    0.78961   1.00
O3       0.91615    0.56335    0.71099   1.00
Si1      0.86900    0.50678    0.79247   1.00
Si1      0.92918    0.60841    0.70279   1.00
C6       0.83877    0.53241    0.82538   1.00
C6       0.84724    0.50331    0.74598   1.00
C6       0.88480    0.46204    0.81253   1.00
C6       0.97658    0.62309    0.71693   1.00
C6       0.92440    0.61283    0.65198   1.00
C6       0.89393    0.63868    0.72477   1.00
C6       0.85968    0.55028    0.86194   1.00
H2       0.82950    0.55741    0.80791   1.00
C6       0.80017    0.51369    0.84147   1.00
H2       0.85361    0.53193    0.73358   1.00
C6       0.86408    0.47294    0.71634   1.00
C6       0.80188    0.49863    0.74336   1.00
H2       0.90098    0.47158    0.83831   1.00
C6       0.85259    0.43335    0.82772   1.00
C6       0.91323    0.43524    0.78849   1.00
C6       0.98844    0.61808    0.76071   1.00
C6       1.01264    0.60967    0.69225   1.00
H2       0.97559    0.65456    0.71212   1.00
H2       0.94811    0.59494    0.64051   1.00
C6       0.88623    0.59550    0.63378   1.00
C6       0.92972    0.65441    0.63393   1.00
H2       0.86999    0.63919    0.70375   1.00
C6       0.87537    0.62332    0.76336   1.00
C6       0.90487    0.68239    0.73244   1.00
H2       0.88379    0.56933    0.85346   1.00
H2       0.87135    0.52744    0.88090   1.00
H2       0.83960    0.56810    0.87917   1.00
H2       0.77815    0.53632    0.84608   1.00
H2       0.78771    0.49217    0.82178   1.00
H2       0.80449    0.49942    0.86964   1.00
H2       0.85402    0.47929    0.68672   1.00
H2       0.89580    0.47357    0.71532   1.00
H2       0.85466    0.44337    0.72352   1.00
H2       0.78685    0.52220    0.75862   1.00
H2       0.79182    0.49984    0.71308   1.00
H2       0.79247    0.47070    0.75550   1.00
H2       0.83089    0.42742    0.80514   1.00
H2       0.86485    0.40539    0.83708   1.00
H2       0.83794    0.44496    0.85332   1.00
H2       0.89752    0.41553    0.76902   1.00
H2       0.93375    0.45138    0.77068   1.00
H2       0.93049    0.41709    0.80828   1.00
H2       0.99848    0.58856    0.76688   1.00
H2       1.01242    0.63780    0.76809   1.00
H2       0.96451    0.62477    0.78048   1.00
H2       1.03891    0.62543    0.70125   1.00
H2       1.01880    0.57873    0.69574   1.00
H2       1.00886    0.61566    0.66122   1.00
H2       0.88890    0.59360    0.60202   1.00
H2       0.88068    0.56593    0.64435   1.00
H2       0.86070    0.61335    0.64035   1.00
H2       0.95644    0.66838    0.64416   1.00
H2       0.93179    0.65255    0.60212   1.00
H2       0.90504    0.67335    0.64085   1.00
H2       0.89689    0.62006    0.78656   1.00
H2       0.85226    0.64263    0.77381   1.00
H2       0.86216    0.59497    0.75834   1.00
H2       0.87901    0.69931    0.74044   1.00
H2       0.92593    0.68513    0.75622   1.00
H2       0.91720    0.69618    0.70657   1.00
C4       1.00040    0.77084    0.50302   1.00
C4       0.99981    0.72912    0.50259   1.00
C3       0.98589    0.79364    0.53442   1.00
C3       0.98150    0.70616    0.53182   1.00
C3       1.01575    0.79123    0.47009   1.00
C3       1.01857    0.70886    0.47140   1.00
C2       1.00087    0.85512    0.50083   1.00
C2       0.99913    0.64488    0.49917   1.00
C3       0.98590    0.83462    0.53329   1.00
C3       0.98147    0.66519    0.53038   1.00
C3       1.01617    0.83258    0.46983   1.00
C3       1.01676    0.66762    0.46961   1.00
H1       0.97501    0.78115    0.55910   1.00
H1       0.96743    0.71852    0.55490   1.00
C5       1.03074    0.77020    0.43773   1.00
C5       1.03872    0.72980    0.44197   1.00
H1       0.97476    0.84955    0.55675   1.00
H1       0.96806    0.65010    0.55251   1.00
H1       1.02826    0.84680    0.44649   1.00
H1       1.02816    0.65368    0.44582   1.00
O3       1.03942    0.78961    0.40360   1.00
O3       1.06335    0.71099    0.41615   1.00
Si1      1.00678    0.79247    0.36900   1.00
Si1      1.10841    0.70279    0.42918   1.00
C6       1.03241    0.82538    0.33877   1.00
C6       1.00331    0.74598    0.34724   1.00
C6       0.96204    0.81253    0.38480   1.00
C6       1.12309    0.71693    0.47658   1.00
C6       1.11283    0.65198    0.42440   1.00
C6       1.13868    0.72477    0.39393   1.00
C6       1.05028    0.86194    0.35968   1.00
H2       1.05741    0.80791    0.32950   1.00
C6       1.01369    0.84147    0.30017   1.00
H2       1.03193    0.73358    0.35361   1.00
C6       0.97294    0.71634    0.36408   1.00
C6       0.99863    0.74336    0.30188   1.00
H2       0.97158    0.83831    0.40098   1.00
C6       0.93335    0.82772    0.35259   1.00
C6       0.93524    0.78849    0.41323   1.00
C6       1.11808    0.76071    0.48844   1.00
C6       1.10967    0.69225    0.51264   1.00
H2       1.15456    0.71212    0.47559   1.00
H2       1.09494    0.64051    0.44811   1.00
C6       1.09550    0.63378    0.38623   1.00
C6       1.15441    0.63393    0.42972   1.00
H2       1.13919    0.70375    0.36999   1.00
C6       1.12332    0.76336    0.37537   1.00
C6       1.18239    0.73244    0.40487   1.00
H2       1.06933    0.85346    0.38379   1.00
H2       1.02744    0.88090    0.37135   1.00
H2       1.06810    0.87917    0.33960   1.00
H2       1.03632    0.84608    0.27815   1.00
H2       0.99217    0.82178    0.28771   1.00
H2       0.99942    0.86964    0.30449   1.00
H2       0.97929    0.68672    0.35402   1.00
H2       0.97357    0.71532    0.39580   1.00
H2       0.94337    0.72352    0.35466   1.00
H2       1.02220    0.75862    0.28685   1.00
H2       0.99984    0.71308    0.29182   1.00
H2       0.97070    0.75550    0.29247   1.00
H2       0.92742    0.80514    0.33089   1.00
H2       0.90539    0.83708    0.36485   1.00
H2       0.94496    0.85332    0.33794   1.00
H2       0.91553    0.76902    0.39752   1.00
H2       0.95138    0.77068    0.43375   1.00
H2       0.91709    0.80828    0.43049   1.00
H2       1.08856    0.76688    0.49848   1.00
H2       1.13780    0.76809    0.51242   1.00
H2       1.12477    0.78048    0.46451   1.00
H2       1.12543    0.70125    0.53891   1.00
H2       1.07873    0.69574    0.51880   1.00
H2       1.11566    0.66122    0.50886   1.00
H2       1.09360    0.60202    0.38890   1.00
H2       1.06593    0.64435    0.38068   1.00
H2       1.11335    0.64035    0.36070   1.00
H2       1.16838    0.64416    0.45644   1.00
H2       1.15255    0.60212    0.43179   1.00
H2       1.17335    0.64085    0.40504   1.00
H2       1.12006    0.78656    0.39689   1.00
H2       1.14263    0.77381    0.35226   1.00
H2       1.09497    0.75834    0.36216   1.00
H2       1.19931    0.74044    0.37901   1.00
H2       1.18513    0.75622    0.42593   1.00
H2       1.19618    0.70657    0.41720   1.00
C4       0.72916    0.50302    0.49960   1.00
C4       0.77088    0.50259    0.50019   1.00
C3       0.70636    0.53442    0.51411   1.00
C3       0.79384    0.53182    0.51850   1.00
C3       0.70877    0.47009    0.48425   1.00
C3       0.79114    0.47140    0.48143   1.00
C2       0.64488    0.50083    0.49913   1.00
C2       0.85512    0.49917    0.50087   1.00
C3       0.66538    0.53329    0.51410   1.00
C3       0.83481    0.53038    0.51853   1.00
C3       0.66742    0.46983    0.48383   1.00
C3       0.83238    0.46961    0.48324   1.00
H1       0.71885    0.55910    0.52499   1.00
H1       0.78148    0.55490    0.53257   1.00
C5       0.72980    0.43773    0.46926   1.00
C5       0.77020    0.44197    0.46128   1.00
H1       0.65045    0.55675    0.52524   1.00
H1       0.84990    0.55251    0.53194   1.00
H1       0.65320    0.44649    0.47174   1.00
H1       0.84632    0.44582    0.47184   1.00
O3       0.71039    0.40360    0.46058   1.00
O3       0.78901    0.41615    0.43665   1.00
Si1      0.70753    0.36900    0.49322   1.00
Si1      0.79721    0.42918    0.39159   1.00
C6       0.67462    0.33877    0.46759   1.00
C6       0.75402    0.34724    0.49669   1.00
C6       0.68747    0.38480    0.53796   1.00
C6       0.78307    0.47658    0.37691   1.00
C6       0.84802    0.42440    0.38717   1.00
C6       0.77523    0.39393    0.36132   1.00
C6       0.63806    0.35968    0.44972   1.00
H2       0.69209    0.32950    0.44259   1.00
C6       0.65853    0.30017    0.48631   1.00
H2       0.76642    0.35361    0.46807   1.00
C6       0.78366    0.36408    0.52706   1.00
C6       0.75664    0.30188    0.50137   1.00
H2       0.66169    0.40098    0.52842   1.00
C6       0.67228    0.35259    0.56665   1.00
C6       0.71151    0.41323    0.56476   1.00
C6       0.73929    0.48844    0.38192   1.00
C6       0.80775    0.51264    0.39033   1.00
H2       0.78788    0.47559    0.34544   1.00
H2       0.85949    0.44811    0.40506   1.00
C6       0.86622    0.38623    0.40450   1.00
C6       0.86607    0.42972    0.34559   1.00
H2       0.79625    0.36999    0.36081   1.00
C6       0.73664    0.37537    0.37668   1.00
C6       0.76756    0.40487    0.31761   1.00
H2       0.64654    0.38379    0.43067   1.00
H2       0.61910    0.37135    0.47256   1.00
H2       0.62083    0.33960    0.43190   1.00
H2       0.65392    0.27815    0.46368   1.00
H2       0.67822    0.28771    0.50783   1.00
H2       0.63036    0.30449    0.50058   1.00
H2       0.81328    0.35402    0.52071   1.00
H2       0.78468    0.39580    0.52643   1.00
H2       0.77648    0.35466    0.55663   1.00
H2       0.74138    0.28685    0.47780   1.00
H2       0.78692    0.29182    0.50016   1.00
H2       0.74450    0.29247    0.52930   1.00
H2       0.69486    0.33089    0.57258   1.00
H2       0.66292    0.36485    0.59461   1.00
H2       0.64668    0.33794    0.55504   1.00
H2       0.73098    0.39752    0.58447   1.00
H2       0.72932    0.43375    0.54862   1.00
H2       0.69172    0.43049    0.58291   1.00
H2       0.73312    0.49848    0.41144   1.00
H2       0.73191    0.51242    0.36220   1.00
H2       0.71952    0.46451    0.37523   1.00
H2       0.79875    0.53891    0.37457   1.00
H2       0.80426    0.51880    0.42127   1.00
H2       0.83878    0.50886    0.38434   1.00
H2       0.89798    0.38890    0.40640   1.00
H2       0.85565    0.38068    0.43407   1.00
H2       0.85965    0.36070    0.38665   1.00
H2       0.85584    0.45644    0.33162   1.00
H2       0.89788    0.43179    0.34745   1.00
H2       0.85915    0.40504    0.32665   1.00
H2       0.71344    0.39689    0.37994   1.00
H2       0.72619    0.35226    0.35737   1.00
H2       0.74166    0.36216    0.40503   1.00
H2       0.75956    0.37901    0.30069   1.00
H2       0.74378    0.42593    0.31487   1.00
H2       0.79343    0.41720    0.30382   1.00
C4       1.27084    0.50302    0.50040   1.00
C4       1.22912    0.50259    0.49981   1.00
C3       1.29364    0.53442    0.48589   1.00
C3       1.20616    0.53182    0.48150   1.00
C3       1.29123    0.47009    0.51575   1.00
C3       1.20886    0.47140    0.51857   1.00
C2       1.35512    0.50083    0.50087   1.00
C2       1.14488    0.49917    0.49913   1.00
C3       1.33462    0.53329    0.48590   1.00
C3       1.16519    0.53038    0.48147   1.00
C3       1.33258    0.46983    0.51617   1.00
C3       1.16762    0.46961    0.51676   1.00
H1       1.28115    0.55910    0.47501   1.00
H1       1.21852    0.55490    0.46743   1.00
C5       1.27020    0.43773    0.53074   1.00
C5       1.22980    0.44197    0.53872   1.00
H1       1.34955    0.55675    0.47476   1.00
H1       1.15010    0.55251    0.46806   1.00
H1       1.34680    0.44649    0.52826   1.00
H1       1.15368    0.44582    0.52816   1.00
O3       1.28961    0.40360    0.53942   1.00
O3       1.21099    0.41615    0.56335   1.00
Si1      1.29247    0.36900    0.50678   1.00
Si1      1.20279    0.42918    0.60841   1.00
C6       1.32538    0.33877    0.53241   1.00
C6       1.24598    0.34724    0.50331   1.00
C6       1.31253    0.38480    0.46204   1.00
C6       1.21693    0.47658    0.62309   1.00
C6       1.15198    0.42440    0.61283   1.00
C6       1.22477    0.39393    0.63868   1.00
C6       1.36194    0.35968    0.55028   1.00
H2       1.30791    0.32950    0.55741   1.00
C6       1.34147    0.30017    0.51369   1.00
H2       1.23358    0.35361    0.53193   1.00
C6       1.21634    0.36408    0.47294   1.00
C6       1.24336    0.30188    0.49863   1.00
H2       1.33831    0.40098    0.47158   1.00
C6       1.32772    0.35259    0.43335   1.00
C6       1.28849    0.41323    0.43524   1.00
C6       1.26071    0.48844    0.61808   1.00
C6       1.19225    0.51264    0.60967   1.00
H2       1.21212    0.47559    0.65456   1.00
H2       1.14051    0.44811    0.59494   1.00
C6       1.13378    0.38623    0.59550   1.00
C6       1.13393    0.42972    0.65441   1.00
H2       1.20375    0.36999    0.63919   1.00
C6       1.26336    0.37537    0.62332   1.00
C6       1.23244    0.40487    0.68239   1.00
H2       1.35346    0.38379    0.56933   1.00
H2       1.38090    0.37135    0.52744   1.00
H2       1.37917    0.33960    0.56810   1.00
H2       1.34608    0.27815    0.53632   1.00
H2       1.32178    0.28771    0.49217   1.00
H2       1.36964    0.30449    0.49942   1.00
H2       1.18672    0.35402    0.47929   1.00
H2       1.21532    0.39580    0.47357   1.00
H2       1.22352    0.35466    0.44337   1.00
H2       1.25862    0.28685    0.52220   1.00
H2       1.21308    0.29182    0.49984   1.00
H2       1.25550    0.29247    0.47070   1.00
H2       1.30514    0.33089    0.42742   1.00
H2       1.33708    0.36485    0.40539   1.00
H2       1.35332    0.33794    0.44496   1.00
H2       1.26902    0.39752    0.41553   1.00
H2       1.27068    0.43375    0.45138   1.00
H2       1.30828    0.43049    0.41709   1.00
H2       1.26688    0.49848    0.58856   1.00
H2       1.26809    0.51242    0.63780   1.00
H2       1.28048    0.46451    0.62477   1.00
H2       1.20125    0.53891    0.62543   1.00
H2       1.19574    0.51880    0.57873   1.00
H2       1.16122    0.50886    0.61566   1.00
H2       1.10202    0.38890    0.59360   1.00
H2       1.14435    0.38068    0.56593   1.00
H2       1.14035    0.36070    0.61335   1.00
H2       1.14416    0.45644    0.66838   1.00
H2       1.10212    0.43179    0.65255   1.00
H2       1.14085    0.40504    0.67335   1.00
H2       1.28656    0.39689    0.62006   1.00
H2       1.27381    0.35226    0.64263   1.00
H2       1.25834    0.36216    0.59497   1.00
H2       1.24044    0.37901    0.69931   1.00
H2       1.25622    0.42593    0.68513   1.00
H2       1.20657    0.41720    0.69618   1.00
C4       0.99960    0.22916    0.50302   1.00
C4       1.00019    0.27088    0.50259   1.00
C3       1.01411    0.20636    0.53442   1.00
C3       1.01850    0.29384    0.53182   1.00
C3       0.98425    0.20877    0.47009   1.00
C3       0.98143    0.29114    0.47140   1.00
C2       0.99913    0.14488    0.50083   1.00
C2       1.00087    0.35512    0.49917   1.00
C3       1.01410    0.16538    0.53329   1.00
C3       1.01853    0.33481    0.53038   1.00
C3       0.98383    0.16742    0.46983   1.00
C3       0.98324    0.33238    0.46961   1.00
H1       1.02499    0.21885    0.55910   1.00
H1       1.03257    0.28148    0.55490   1.00
C5       0.96926    0.22980    0.43773   1.00
C5       0.96128    0.27020    0.44197   1.00
H1       1.02524    0.15045    0.55675   1.00
H1       1.03194    0.34990    0.55251   1.00
H1       0.97174    0.15320    0.44649   1.00
H1       0.97184    0.34632    0.44582   1.00
O3       0.96058    0.21039    0.40360   1.00
O3       0.93665    0.28901    0.41615   1.00
Si1      0.99322    0.20753    0.36900   1.00
Si1      0.89159    0.29721    0.42918   1.00
C6       0.96759    0.17462    0.33877   1.00
C6       0.99669    0.25402    0.34724   1.00
C6       1.03796    0.18747    0.38480   1.00
C6       0.87691    0.28307    0.47658   1.00
C6       0.88717    0.34802    0.42440   1.00
C6       0.86132    0.27523    0.39393   1.00
C6       0.94972    0.13806    0.35968   1.00
H2       0.94259    0.19209    0.32950   1.00
C6       0.98631    0.15853    0.30017   1.00
H2       0.96807    0.26642    0.35361   1.00
C6       1.02706    0.28366    0.36408   1.00
C6       1.00137    0.25664    0.30188   1.00
H2       1.02842    0.16169    0.40098   1.00
C6       1.06665    0.17228    0.35259   1.00
C6       1.06476    0.21151    0.41323   1.00
C6       0.88192    0.23929    0.48844   1.00
C6       0.89033    0.30775    0.51264   1.00
H2       0.84544    0.28788    0.47559   1.00
H2       0.90506    0.35949    0.44811   1.00
C6       0.90450    0.36622    0.38623   1.00
C6       0.84559    0.36607    0.42972   1.00
H2       0.86081    0.29625    0.36999   1.00
C6       0.87668    0.23664    0.37537   1.00
C6       0.81761    0.26756    0.40487   1.00
H2       0.93067    0.14654    0.38379   1.00
H2       0.97256    0.11910    0.37135   1.00
H2       0.93190    0.12083    0.33960   1.00
H2       0.96368    0.15392    0.27815   1.00
H2       1.00783    0.17822    0.28771   1.00
H2       1.00058    0.13036    0.30449   1.00
H2       1.02071    0.31328    0.35402   1.00
H2       1.02643    0.28468    0.39580   1.00
H2       1.05663    0.27648    0.35466   1.00
H2       0.97780    0.24138    0.28685   1.00
H2       1.00016    0.28692    0.29182   1.00
H2       1.02930    0.24450    0.29247   1.00
H2       1.07258    0.19486    0.33089   1.00
H2       1.09461    0.16292    0.36485   1.00
H2       1.05504    0.14668    0.33794   1.00
H2       1.08447    0.23098    0.39752   1.00
H2       1.04862    0.22932    0.43375   1.00
H2       1.08291    0.19172    0.43049   1.00
H2       0.91144    0.23312    0.49848   1.00
H2       0.86220    0.23191    0.51242   1.00
H2       0.87523    0.21952    0.46451   1.00
H2       0.87457    0.29875    0.53891   1.00
H2       0.92127    0.30426    0.51880   1.00
H2       0.88434    0.33878    0.50886   1.00
H2       0.90640    0.39798    0.38890   1.00
H2       0.93407    0.35565    0.38068   1.00
H2       0.88665    0.35965    0.36070   1.00
H2       0.83162    0.35584    0.45644   1.00
H2       0.84745    0.39788    0.43179   1.00
H2       0.82665    0.35915    0.40504   1.00
H2       0.87994    0.21344    0.39689   1.00
H2       0.85737    0.22619    0.35226   1.00
H2       0.90503    0.24166    0.36216   1.00
H2       0.80069    0.25956    0.37901   1.00
H2       0.81487    0.24378    0.42593   1.00
H2       0.80382    0.29343    0.41720   1.00
C4       1.00302    0.49960    0.22916   1.00
C4       1.00259    0.50019    0.27088   1.00
C3       1.03442    0.51411    0.20636   1.00
C3       1.03182    0.51850    0.29384   1.00
C3       0.97009    0.48425    0.20877   1.00
C3       0.97140    0.48143    0.29114   1.00
C2       1.00083    0.49913    0.14488   1.00
C2       0.99917    0.50087    0.35512   1.00
C3       1.03329    0.51410    0.16538   1.00
C3       1.03038    0.51853    0.33481   1.00
C3       0.96983    0.48383    0.16742   1.00
C3       0.96961    0.48324    0.33238   1.00
H1       1.05910    0.52499    0.21885   1.00
H1       1.05490    0.53257    0.28148   1.00
C5       0.93773    0.46926    0.22980   1.00
C5       0.94197    0.46128    0.27020   1.00
H1       1.05675    0.52524    0.15045   1.00
H1       1.05251    0.53194    0.34990   1.00
H1       0.94649    0.47174    0.15320   1.00
H1       0.94582    0.47184    0.34632   1.00
O3       0.90360    0.46058    0.21039   1.00
O3       0.91615    0.43665    0.28901   1.00
Si1      0.86900    0.49322    0.20753   1.00
Si1      0.92918    0.39159    0.29721   1.00
C6       0.83877    0.46759    0.17462   1.00
C6       0.84724    0.49669    0.25402   1.00
C6       0.88480    0.53796    0.18747   1.00
C6       0.97658    0.37691    0.28307   1.00
C6       0.92440    0.38717    0.34802   1.00
C6       0.89393    0.36132    0.27523   1.00
C6       0.85968    0.44972    0.13806   1.00
H2       0.82950    0.44259    0.19209   1.00
C6       0.80017    0.48631    0.15853   1.00
H2       0.85361    0.46807    0.26642   1.00
C6       0.86408    0.52706    0.28366   1.00
C6       0.80188    0.50137    0.25664   1.00
H2       0.90098    0.52842    0.16169   1.00
C6       0.85259    0.56665    0.17228   1.00
C6       0.91323    0.56476    0.21151   1.00
C6       0.98844    0.38192    0.23929   1.00
C6       1.01264    0.39033    0.30775   1.00
H2       0.97559    0.34544    0.28788   1.00
H2       0.94811    0.40506    0.35949   1.00
C6       0.88623    0.40450    0.36622   1.00
C6       0.92972    0.34559    0.36607   1.00
H2       0.86999    0.36081    0.29625   1.00
C6       0.87537    0.37668    0.23664   1.00
C6       0.90487    0.31761    0.26756   1.00
H2       0.88379    0.43067    0.14654   1.00
H2       0.87135    0.47256    0.11910   1.00
H2       0.83960    0.43190    0.12083   1.00
H2       0.77815    0.46368    0.15392   1.00
H2       0.78771    0.50783    0.17822   1.00
H2       0.80449    0.50058    0.13036   1.00
H2       0.85402    0.52071    0.31328   1.00
H2       0.89580    0.52643    0.28468   1.00
H2       0.85466    0.55663    0.27648   1.00
H2       0.78685    0.47780    0.24138   1.00
H2       0.79182    0.50016    0.28692   1.00
H2       0.79247    0.52930    0.24450   1.00
H2       0.83089    0.57258    0.19486   1.00
H2       0.86485    0.59461    0.16292   1.00
H2       0.83794    0.55504    0.14668   1.00
H2       0.89752    0.58447    0.23098   1.00
H2       0.93375    0.54862    0.22932   1.00
H2       0.93049    0.58291    0.19172   1.00
H2       0.99848    0.41144    0.23312   1.00
H2       1.01242    0.36220    0.23191   1.00
H2       0.96451    0.37523    0.21952   1.00
H2       1.03891    0.37457    0.29875   1.00
H2       1.01880    0.42127    0.30426   1.00
H2       1.00886    0.38434    0.33878   1.00
H2       0.88890    0.40640    0.39798   1.00
H2       0.88068    0.43407    0.35565   1.00
H2       0.86070    0.38665    0.35965   1.00
H2       0.95644    0.33162    0.35584   1.00
H2       0.93179    0.34745    0.39788   1.00
H2       0.90504    0.32665    0.35915   1.00
H2       0.89689    0.37994    0.21344   1.00
H2       0.85226    0.35737    0.22619   1.00
H2       0.86216    0.40503    0.24166   1.00
H2       0.87901    0.30069    0.25956   1.00
H2       0.92593    0.31487    0.24378   1.00
H2       0.91720    0.30382    0.29343   1.00
