data_IRMOF10_SG202_interpen_Ligand4lp_label_h.

_audit_creation_method             'generated by an auxiliary program of Tobunporous'

_symmetry_space_group_name_H-M     'P 1'
_symmetry_Int_Tables_number        1
_symmetry_cell_setting             triclinic

_cell_length_a                    34.2800
_cell_length_b                    34.2800
_cell_length_c                    34.2800
_cell_angle_alpha                 90.0000
_cell_angle_beta                  90.0000
_cell_angle_gamma                 90.0000

loop_
_atom_site_label
_atom_site_fract_x
_atom_site_fract_y
_atom_site_fract_z
_atom_site_occupancy
O1       0.75000    0.75000    0.75000   1.00
Zn1      0.71720    0.78280    0.78280   1.00
Zn1      0.78280    0.71720    0.78280   1.00
Zn1      0.78280    0.78280    0.71720   1.00
Zn1      0.71720    0.71720    0.71720   1.00
O2       0.72650    0.77350    0.83820   1.00
O2       0.72650    0.83820    0.77350   1.00
O2       0.66180    0.77350    0.77350   1.00
O2       0.77350    0.72650    0.83820   1.00
O2       0.83820    0.72650    0.77350   1.00
O2       0.77350    0.66180    0.77350   1.00
O2       0.77350    0.83820    0.72650   1.00
O2       0.83820    0.77350    0.72650   1.00
O2       0.77350    0.77350    0.66180   1.00
O2       0.66180    0.72650    0.72650   1.00
O2       0.72650    0.66180    0.72650   1.00
O2       0.72650    0.72650    0.66180   1.00
C1       0.75000    0.75000    0.85520   1.00
C1       0.75000    0.85520    0.75000   1.00
C1       0.64480    0.75000    0.75000   1.00
C1       0.85520    0.75000    0.75000   1.00
C1       0.75000    0.64480    0.75000   1.00
C1       0.75000    0.75000    0.64480   1.00
O1       0.25000    0.25000    0.75000   1.00
Zn1      0.21720    0.28280    0.78280   1.00
Zn1      0.28280    0.21720    0.78280   1.00
Zn1      0.28280    0.28280    0.71720   1.00
Zn1      0.21720    0.21720    0.71720   1.00
O2       0.22650    0.27350    0.83820   1.00
O2       0.22650    0.33820    0.77350   1.00
O2       0.16180    0.27350    0.77350   1.00
O2       0.27350    0.22650    0.83820   1.00
O2       0.33820    0.22650    0.77350   1.00
O2       0.27350    0.16180    0.77350   1.00
O2       0.27350    0.33820    0.72650   1.00
O2       0.33820    0.27350    0.72650   1.00
O2       0.27350    0.27350    0.66180   1.00
O2       0.16180    0.22650    0.72650   1.00
O2       0.22650    0.16180    0.72650   1.00
O2       0.22650    0.22650    0.66180   1.00
C1       0.25000    0.25000    0.85520   1.00
C1       0.25000    0.35520    0.75000   1.00
C1       0.14480    0.25000    0.75000   1.00
C1       0.35520    0.25000    0.75000   1.00
C1       0.25000    0.14480    0.75000   1.00
C1       0.25000    0.25000    0.64480   1.00
O1       0.25000    0.75000    0.25000   1.00
Zn1      0.21720    0.78280    0.28280   1.00
Zn1      0.28280    0.71720    0.28280   1.00
Zn1      0.28280    0.78280    0.21720   1.00
Zn1      0.21720    0.71720    0.21720   1.00
O2       0.22650    0.77350    0.33820   1.00
O2       0.22650    0.83820    0.27350   1.00
O2       0.16180    0.77350    0.27350   1.00
O2       0.27350    0.72650    0.33820   1.00
O2       0.33820    0.72650    0.27350   1.00
O2       0.27350    0.66180    0.27350   1.00
O2       0.27350    0.83820    0.22650   1.00
O2       0.33820    0.77350    0.22650   1.00
O2       0.27350    0.77350    0.16180   1.00
O2       0.16180    0.72650    0.22650   1.00
O2       0.22650    0.66180    0.22650   1.00
O2       0.22650    0.72650    0.16180   1.00
C1       0.25000    0.75000    0.35520   1.00
C1       0.25000    0.85520    0.25000   1.00
C1       0.14480    0.75000    0.25000   1.00
C1       0.35520    0.75000    0.25000   1.00
C1       0.25000    0.64480    0.25000   1.00
C1       0.25000    0.75000    0.14480   1.00
O1       0.75000    0.25000    0.25000   1.00
Zn1      0.71720    0.28280    0.28280   1.00
Zn1      0.78280    0.21720    0.28280   1.00
Zn1      0.78280    0.28280    0.21720   1.00
Zn1      0.71720    0.21720    0.21720   1.00
O2       0.72650    0.27350    0.33820   1.00
O2       0.72650    0.33820    0.27350   1.00
O2       0.66180    0.27350    0.27350   1.00
O2       0.77350    0.22650    0.33820   1.00
O2       0.83820    0.22650    0.27350   1.00
O2       0.77350    0.16180    0.27350   1.00
O2       0.77350    0.33820    0.22650   1.00
O2       0.83820    0.27350    0.22650   1.00
O2       0.77350    0.27350    0.16180   1.00
O2       0.66180    0.22650    0.22650   1.00
O2       0.72650    0.16180    0.22650   1.00
O2       0.72650    0.22650    0.16180   1.00
C1       0.75000    0.25000    0.35520   1.00
C1       0.75000    0.35520    0.25000   1.00
C1       0.64480    0.25000    0.25000   1.00
C1       0.85520    0.25000    0.25000   1.00
C1       0.75000    0.14480    0.25000   1.00
C1       0.75000    0.25000    0.14480   1.00
O1       0.25000    0.25000    0.25000   1.00
Zn1      0.28280    0.21720    0.21720   1.00
Zn1      0.21720    0.28280    0.21720   1.00
Zn1      0.21720    0.21720    0.28280   1.00
Zn1      0.28280    0.28280    0.28280   1.00
O2       0.27350    0.22650    0.16180   1.00
O2       0.27350    0.16180    0.22650   1.00
O2       0.33820    0.22650    0.22650   1.00
O2       0.22650    0.27350    0.16180   1.00
O2       0.16180    0.27350    0.22650   1.00
O2       0.22650    0.33820    0.22650   1.00
O2       0.22650    0.16180    0.27350   1.00
O2       0.16180    0.22650    0.27350   1.00
O2       0.22650    0.22650    0.33820   1.00
O2       0.33820    0.27350    0.27350   1.00
O2       0.27350    0.33820    0.27350   1.00
O2       0.27350    0.27350    0.33820   1.00
C1       0.25000    0.25000    0.14480   1.00
C1       0.25000    0.14480    0.25000   1.00
C1       0.35520    0.25000    0.25000   1.00
C1       0.14480    0.25000    0.25000   1.00
C1       0.25000    0.35520    0.25000   1.00
C1       0.25000    0.25000    0.35520   1.00
O1       0.75000    0.75000    0.25000   1.00
Zn1      0.78280    0.71720    0.21720   1.00
Zn1      0.71720    0.78280    0.21720   1.00
Zn1      0.71720    0.71720    0.28280   1.00
Zn1      0.78280    0.78280    0.28280   1.00
O2       0.77350    0.72650    0.16180   1.00
O2       0.77350    0.66180    0.22650   1.00
O2       0.83820    0.72650    0.22650   1.00
O2       0.72650    0.77350    0.16180   1.00
O2       0.66180    0.77350    0.22650   1.00
O2       0.72650    0.83820    0.22650   1.00
O2       0.72650    0.66180    0.27350   1.00
O2       0.66180    0.72650    0.27350   1.00
O2       0.72650    0.72650    0.33820   1.00
O2       0.83820    0.77350    0.27350   1.00
O2       0.77350    0.83820    0.27350   1.00
O2       0.77350    0.77350    0.33820   1.00
C1       0.75000    0.75000    0.14480   1.00
C1       0.75000    0.64480    0.25000   1.00
C1       0.85520    0.75000    0.25000   1.00
C1       0.64480    0.75000    0.25000   1.00
C1       0.75000    0.85520    0.25000   1.00
C1       0.75000    0.75000    0.35520   1.00
O1       0.75000    0.25000    0.75000   1.00
Zn1      0.78280    0.21720    0.71720   1.00
Zn1      0.71720    0.28280    0.71720   1.00
Zn1      0.71720    0.21720    0.78280   1.00
Zn1      0.78280    0.28280    0.78280   1.00
O2       0.77350    0.22650    0.66180   1.00
O2       0.77350    0.16180    0.72650   1.00
O2       0.83820    0.22650    0.72650   1.00
O2       0.72650    0.27350    0.66180   1.00
O2       0.66180    0.27350    0.72650   1.00
O2       0.72650    0.33820    0.72650   1.00
O2       0.72650    0.16180    0.77350   1.00
O2       0.66180    0.22650    0.77350   1.00
O2       0.72650    0.22650    0.83820   1.00
O2       0.83820    0.27350    0.77350   1.00
O2       0.77350    0.33820    0.77350   1.00
O2       0.77350    0.27350    0.83820   1.00
C1       0.75000    0.25000    0.64480   1.00
C1       0.75000    0.14480    0.75000   1.00
C1       0.85520    0.25000    0.75000   1.00
C1       0.64480    0.25000    0.75000   1.00
C1       0.75000    0.35520    0.75000   1.00
C1       0.75000    0.25000    0.85520   1.00
O1       0.25000    0.75000    0.75000   1.00
Zn1      0.28280    0.71720    0.71720   1.00
Zn1      0.21720    0.78280    0.71720   1.00
Zn1      0.21720    0.71720    0.78280   1.00
Zn1      0.28280    0.78280    0.78280   1.00
O2       0.27350    0.72650    0.66180   1.00
O2       0.27350    0.66180    0.72650   1.00
O2       0.33820    0.72650    0.72650   1.00
O2       0.22650    0.77350    0.66180   1.00
O2       0.16180    0.77350    0.72650   1.00
O2       0.22650    0.83820    0.72650   1.00
O2       0.22650    0.66180    0.77350   1.00
O2       0.16180    0.72650    0.77350   1.00
O2       0.22650    0.72650    0.83820   1.00
O2       0.33820    0.77350    0.77350   1.00
O2       0.27350    0.83820    0.77350   1.00
O2       0.27350    0.77350    0.83820   1.00
C1       0.25000    0.75000    0.64480   1.00
C1       0.25000    0.64480    0.75000   1.00
C1       0.35520    0.75000    0.75000   1.00
C1       0.14480    0.75000    0.75000   1.00
C1       0.25000    0.85520    0.75000   1.00
C1       0.25000    0.75000    0.85520   1.00
O1       1.00000    1.00000    1.00000   1.00
Zn1      0.96720    1.03280    1.03280   1.00
Zn1      1.03280    0.96720    1.03280   1.00
Zn1      1.03280    1.03280    0.96720   1.00
Zn1      0.96720    0.96720    0.96720   1.00
O2       0.97650    1.02350    1.08820   1.00
O2       0.97650    1.08820    1.02350   1.00
O2       0.91180    1.02350    1.02350   1.00
O2       1.02350    0.97650    1.08820   1.00
O2       1.08820    0.97650    1.02350   1.00
O2       1.02350    0.91180    1.02350   1.00
O2       1.02350    1.08820    0.97650   1.00
O2       1.08820    1.02350    0.97650   1.00
O2       1.02350    1.02350    0.91180   1.00
O2       0.91180    0.97650    0.97650   1.00
O2       0.97650    0.91180    0.97650   1.00
O2       0.97650    0.97650    0.91180   1.00
C1       1.00000    1.00000    1.10520   1.00
C1       1.00000    1.10520    1.00000   1.00
C1       0.89480    1.00000    1.00000   1.00
C1       1.10520    1.00000    1.00000   1.00
C1       1.00000    0.89480    1.00000   1.00
C1       1.00000    1.00000    0.89480   1.00
O1       0.50000    0.50000    1.00000   1.00
Zn1      0.46720    0.53280    1.03280   1.00
Zn1      0.53280    0.46720    1.03280   1.00
Zn1      0.53280    0.53280    0.96720   1.00
Zn1      0.46720    0.46720    0.96720   1.00
O2       0.47650    0.52350    1.08820   1.00
O2       0.47650    0.58820    1.02350   1.00
O2       0.41180    0.52350    1.02350   1.00
O2       0.52350    0.47650    1.08820   1.00
O2       0.58820    0.47650    1.02350   1.00
O2       0.52350    0.41180    1.02350   1.00
O2       0.52350    0.58820    0.97650   1.00
O2       0.58820    0.52350    0.97650   1.00
O2       0.52350    0.52350    0.91180   1.00
O2       0.41180    0.47650    0.97650   1.00
O2       0.47650    0.41180    0.97650   1.00
O2       0.47650    0.47650    0.91180   1.00
C1       0.50000    0.50000    1.10520   1.00
C1       0.50000    0.60520    1.00000   1.00
C1       0.39480    0.50000    1.00000   1.00
C1       0.60520    0.50000    1.00000   1.00
C1       0.50000    0.39480    1.00000   1.00
C1       0.50000    0.50000    0.89480   1.00
O1       0.50000    1.00000    0.50000   1.00
Zn1      0.46720    1.03280    0.53280   1.00
Zn1      0.53280    0.96720    0.53280   1.00
Zn1      0.53280    1.03280    0.46720   1.00
Zn1      0.46720    0.96720    0.46720   1.00
O2       0.47650    1.02350    0.58820   1.00
O2       0.47650    1.08820    0.52350   1.00
O2       0.41180    1.02350    0.52350   1.00
O2       0.52350    0.97650    0.58820   1.00
O2       0.58820    0.97650    0.52350   1.00
O2       0.52350    0.91180    0.52350   1.00
O2       0.52350    1.08820    0.47650   1.00
O2       0.58820    1.02350    0.47650   1.00
O2       0.52350    1.02350    0.41180   1.00
O2       0.41180    0.97650    0.47650   1.00
O2       0.47650    0.91180    0.47650   1.00
O2       0.47650    0.97650    0.41180   1.00
C1       0.50000    1.00000    0.60520   1.00
C1       0.50000    1.10520    0.50000   1.00
C1       0.39480    1.00000    0.50000   1.00
C1       0.60520    1.00000    0.50000   1.00
C1       0.50000    0.89480    0.50000   1.00
C1       0.50000    1.00000    0.39480   1.00
O1       1.00000    0.50000    0.50000   1.00
Zn1      0.96720    0.53280    0.53280   1.00
Zn1      1.03280    0.46720    0.53280   1.00
Zn1      1.03280    0.53280    0.46720   1.00
Zn1      0.96720    0.46720    0.46720   1.00
O2       0.97650    0.52350    0.58820   1.00
O2       0.97650    0.58820    0.52350   1.00
O2       0.91180    0.52350    0.52350   1.00
O2       1.02350    0.47650    0.58820   1.00
O2       1.08820    0.47650    0.52350   1.00
O2       1.02350    0.41180    0.52350   1.00
O2       1.02350    0.58820    0.47650   1.00
O2       1.08820    0.52350    0.47650   1.00
O2       1.02350    0.52350    0.41180   1.00
O2       0.91180    0.47650    0.47650   1.00
O2       0.97650    0.41180    0.47650   1.00
O2       0.97650    0.47650    0.41180   1.00
C1       1.00000    0.50000    0.60520   1.00
C1       1.00000    0.60520    0.50000   1.00
C1       0.89480    0.50000    0.50000   1.00
C1       1.10520    0.50000    0.50000   1.00
C1       1.00000    0.39480    0.50000   1.00
C1       1.00000    0.50000    0.39480   1.00
O1       0.50000    0.50000    0.50000   1.00
Zn1      0.53280    0.46720    0.46720   1.00
Zn1      0.46720    0.53280    0.46720   1.00
Zn1      0.46720    0.46720    0.53280   1.00
Zn1      0.53280    0.53280    0.53280   1.00
O2       0.52350    0.47650    0.41180   1.00
O2       0.52350    0.41180    0.47650   1.00
O2       0.58820    0.47650    0.47650   1.00
O2       0.47650    0.52350    0.41180   1.00
O2       0.41180    0.52350    0.47650   1.00
O2       0.47650    0.58820    0.47650   1.00
O2       0.47650    0.41180    0.52350   1.00
O2       0.41180    0.47650    0.52350   1.00
O2       0.47650    0.47650    0.58820   1.00
O2       0.58820    0.52350    0.52350   1.00
O2       0.52350    0.58820    0.52350   1.00
O2       0.52350    0.52350    0.58820   1.00
C1       0.50000    0.50000    0.39480   1.00
C1       0.50000    0.39480    0.50000   1.00
C1       0.60520    0.50000    0.50000   1.00
C1       0.39480    0.50000    0.50000   1.00
C1       0.50000    0.60520    0.50000   1.00
C1       0.50000    0.50000    0.60520   1.00
O1       1.00000    1.00000    0.50000   1.00
Zn1      1.03280    0.96720    0.46720   1.00
Zn1      0.96720    1.03280    0.46720   1.00
Zn1      0.96720    0.96720    0.53280   1.00
Zn1      1.03280    1.03280    0.53280   1.00
O2       1.02350    0.97650    0.41180   1.00
O2       1.02350    0.91180    0.47650   1.00
O2       1.08820    0.97650    0.47650   1.00
O2       0.97650    1.02350    0.41180   1.00
O2       0.91180    1.02350    0.47650   1.00
O2       0.97650    1.08820    0.47650   1.00
O2       0.97650    0.91180    0.52350   1.00
O2       0.91180    0.97650    0.52350   1.00
O2       0.97650    0.97650    0.58820   1.00
O2       1.08820    1.02350    0.52350   1.00
O2       1.02350    1.08820    0.52350   1.00
O2       1.02350    1.02350    0.58820   1.00
C1       1.00000    1.00000    0.39480   1.00
C1       1.00000    0.89480    0.50000   1.00
C1       1.10520    1.00000    0.50000   1.00
C1       0.89480    1.00000    0.50000   1.00
C1       1.00000    1.10520    0.50000   1.00
C1       1.00000    1.00000    0.60520   1.00
O1       1.00000    0.50000    1.00000   1.00
Zn1      1.03280    0.46720    0.96720   1.00
Zn1      0.96720    0.53280    0.96720   1.00
Zn1      0.96720    0.46720    1.03280   1.00
Zn1      1.03280    0.53280    1.03280   1.00
O2       1.02350    0.47650    0.91180   1.00
O2       1.02350    0.41180    0.97650   1.00
O2       1.08820    0.47650    0.97650   1.00
O2       0.97650    0.52350    0.91180   1.00
O2       0.91180    0.52350    0.97650   1.00
O2       0.97650    0.58820    0.97650   1.00
O2       0.97650    0.41180    1.02350   1.00
O2       0.91180    0.47650    1.02350   1.00
O2       0.97650    0.47650    1.08820   1.00
O2       1.08820    0.52350    1.02350   1.00
O2       1.02350    0.58820    1.02350   1.00
O2       1.02350    0.52350    1.08820   1.00
C1       1.00000    0.50000    0.89480   1.00
C1       1.00000    0.39480    1.00000   1.00
C1       1.10520    0.50000    1.00000   1.00
C1       0.89480    0.50000    1.00000   1.00
C1       1.00000    0.60520    1.00000   1.00
C1       1.00000    0.50000    1.10520   1.00
O1       0.50000    1.00000    1.00000   1.00
Zn1      0.53280    0.96720    0.96720   1.00
Zn1      0.46720    1.03280    0.96720   1.00
Zn1      0.46720    0.96720    1.03280   1.00
Zn1      0.53280    1.03280    1.03280   1.00
O2       0.52350    0.97650    0.91180   1.00
O2       0.52350    0.91180    0.97650   1.00
O2       0.58820    0.97650    0.97650   1.00
O2       0.47650    1.02350    0.91180   1.00
O2       0.41180    1.02350    0.97650   1.00
O2       0.47650    1.08820    0.97650   1.00
O2       0.47650    0.91180    1.02350   1.00
O2       0.41180    0.97650    1.02350   1.00
O2       0.47650    0.97650    1.08820   1.00
O2       0.58820    1.02350    1.02350   1.00
O2       0.52350    1.08820    1.02350   1.00
O2       0.52350    1.02350    1.08820   1.00
C1       0.50000    1.00000    0.89480   1.00
C1       0.50000    0.89480    1.00000   1.00
C1       0.60520    1.00000    1.00000   1.00
C1       0.39480    1.00000    1.00000   1.00
C1       0.50000    1.10520    1.00000   1.00
C1       0.50000    1.00000    1.10520   1.00
C4       0.74654    0.74669    0.98025   1.00
C4       0.74501    0.74695    1.02191   1.00
C3       0.76942    0.71925    0.95897   1.00
C3       0.76289    0.71738    1.04504   1.00
C3       0.72458    0.77476    0.95854   1.00
C3       0.72491    0.77770    1.04170   1.00
C2       0.74815    0.74490    0.89595   1.00
C2       0.74358    0.74847    1.10622   1.00
C3       0.77010    0.71820    0.91811   1.00
C3       0.76241    0.71816    1.08591   1.00
C3       0.72589    0.77256    0.91696   1.00
C3       0.72528    0.77754    1.08336   1.00
H1       0.78675    0.69924    0.97237   1.00
H1       0.77661    0.69396    1.03306   1.00
C5       0.70229    0.80413    0.97835   1.00
C5       0.70496    0.80739    1.01998   1.00
H1       0.78707    0.69759    0.90451   1.00
H1       0.77599    0.69605    1.10091   1.00
H1       0.71046    0.79185    0.90052   1.00
H1       0.71154    0.79905    1.09848   1.00
C6       0.67596    0.83097    0.95515   1.00
C6       0.68739    0.84195    1.04119   1.00
H2       0.66022    0.81387    0.93345   1.00
H2       0.70800    0.85225    1.06310   1.00
H2       0.65220    0.84227    0.97286   1.00
H2       0.68495    0.86730    1.02228   1.00
C6       0.69827    0.86605    0.93606   1.00
C6       0.64641    0.83298    1.05942   1.00
H2       0.72539    0.85558    0.92292   1.00
H2       0.64713    0.80453    1.07383   1.00
C6       0.67605    0.89060    0.90459   1.00
C6       0.62942    0.86326    1.08911   1.00
H2       0.70733    0.88568    0.95949   1.00
H2       0.62563    0.82973    1.03546   1.00
C6       0.66755    0.86630    0.86735   1.00
C6       0.65401    0.86506    1.12708   1.00
C6       0.63723    0.90721    0.92074   1.00
C6       0.62679    0.90463    1.07107   1.00
C6       0.70222    0.92555    0.89245   1.00
C6       0.58753    0.85031    1.10054   1.00
H2       0.69432    0.85363    0.85558   1.00
H2       0.65696    0.83617    1.14020   1.00
H2       0.64730    0.84255    0.87330   1.00
H2       0.68321    0.87630    1.12154   1.00
H2       0.65451    0.88436    0.84459   1.00
H2       0.64046    0.88419    1.14863   1.00
H2       0.62336    0.92652    0.89955   1.00
H2       0.61236    0.92489    1.09098   1.00
H2       0.61667    0.88383    0.92725   1.00
H2       0.65575    0.91626    1.06494   1.00
H2       0.64229    0.92377    0.94745   1.00
H2       0.61030    0.90404    1.04385   1.00
H2       0.72992    0.91539    0.88042   1.00
H2       0.58779    0.82135    1.11383   1.00
H2       0.68803    0.94347    0.87025   1.00
H2       0.57449    0.87046    1.12149   1.00
H2       0.70860    0.94429    0.91739   1.00
H2       0.56851    0.84924    1.07502   1.00
C4       0.74669    0.98025    0.74654   1.00
C4       0.74695    1.02191    0.74501   1.00
C3       0.71925    0.95897    0.76942   1.00
C3       0.71738    1.04504    0.76289   1.00
C3       0.77476    0.95854    0.72458   1.00
C3       0.77770    1.04170    0.72491   1.00
C2       0.74490    0.89595    0.74815   1.00
C2       0.74847    1.10622    0.74358   1.00
C3       0.71820    0.91811    0.77010   1.00
C3       0.71816    1.08591    0.76241   1.00
C3       0.77256    0.91696    0.72589   1.00
C3       0.77754    1.08336    0.72528   1.00
H1       0.69924    0.97237    0.78675   1.00
H1       0.69396    1.03306    0.77661   1.00
C5       0.80413    0.97835    0.70229   1.00
C5       0.80739    1.01998    0.70496   1.00
H1       0.69759    0.90451    0.78707   1.00
H1       0.69605    1.10091    0.77599   1.00
H1       0.79185    0.90052    0.71046   1.00
H1       0.79905    1.09848    0.71154   1.00
C6       0.83097    0.95515    0.67596   1.00
C6       0.84195    1.04119    0.68739   1.00
H2       0.81387    0.93345    0.66022   1.00
H2       0.85225    1.06310    0.70800   1.00
H2       0.84227    0.97286    0.65220   1.00
H2       0.86730    1.02228    0.68495   1.00
C6       0.86605    0.93606    0.69827   1.00
C6       0.83298    1.05942    0.64641   1.00
H2       0.85558    0.92292    0.72539   1.00
H2       0.80453    1.07383    0.64713   1.00
C6       0.89060    0.90459    0.67605   1.00
C6       0.86326    1.08911    0.62942   1.00
H2       0.88568    0.95949    0.70733   1.00
H2       0.82973    1.03546    0.62563   1.00
C6       0.86630    0.86735    0.66755   1.00
C6       0.86506    1.12708    0.65401   1.00
C6       0.90721    0.92074    0.63723   1.00
C6       0.90463    1.07107    0.62679   1.00
C6       0.92555    0.89245    0.70222   1.00
C6       0.85031    1.10054    0.58753   1.00
H2       0.85363    0.85558    0.69432   1.00
H2       0.83617    1.14020    0.65696   1.00
H2       0.84255    0.87330    0.64730   1.00
H2       0.87630    1.12154    0.68321   1.00
H2       0.88436    0.84459    0.65451   1.00
H2       0.88419    1.14863    0.64046   1.00
H2       0.92652    0.89955    0.62336   1.00
H2       0.92489    1.09098    0.61236   1.00
H2       0.88383    0.92725    0.61667   1.00
H2       0.91626    1.06494    0.65575   1.00
H2       0.92377    0.94745    0.64229   1.00
H2       0.90404    1.04385    0.61030   1.00
H2       0.91539    0.88042    0.72992   1.00
H2       0.82135    1.11383    0.58779   1.00
H2       0.94347    0.87025    0.68803   1.00
H2       0.87046    1.12149    0.57449   1.00
H2       0.94429    0.91739    0.70860   1.00
H2       0.84924    1.07502    0.56851   1.00
C4       0.51975    0.74654    0.75331   1.00
C4       0.47809    0.74501    0.75305   1.00
C3       0.54103    0.76942    0.78075   1.00
C3       0.45496    0.76289    0.78262   1.00
C3       0.54146    0.72458    0.72524   1.00
C3       0.45830    0.72491    0.72230   1.00
C2       0.60405    0.74815    0.75510   1.00
C2       0.39378    0.74358    0.75153   1.00
C3       0.58189    0.77010    0.78180   1.00
C3       0.41409    0.76241    0.78184   1.00
C3       0.58304    0.72589    0.72744   1.00
C3       0.41664    0.72528    0.72246   1.00
H1       0.52763    0.78675    0.80076   1.00
H1       0.46694    0.77661    0.80604   1.00
C5       0.52165    0.70229    0.69587   1.00
C5       0.48002    0.70496    0.69261   1.00
H1       0.59549    0.78707    0.80241   1.00
H1       0.39909    0.77599    0.80395   1.00
H1       0.59948    0.71046    0.70815   1.00
H1       0.40152    0.71154    0.70095   1.00
C6       0.54485    0.67596    0.66903   1.00
C6       0.45881    0.68739    0.65805   1.00
H2       0.56655    0.66022    0.68613   1.00
H2       0.43690    0.70800    0.64775   1.00
H2       0.52714    0.65220    0.65773   1.00
H2       0.47772    0.68495    0.63270   1.00
C6       0.56394    0.69827    0.63395   1.00
C6       0.44058    0.64641    0.66702   1.00
H2       0.57708    0.72539    0.64442   1.00
H2       0.42617    0.64713    0.69547   1.00
C6       0.59541    0.67605    0.60940   1.00
C6       0.41089    0.62942    0.63674   1.00
H2       0.54051    0.70733    0.61432   1.00
H2       0.46454    0.62563    0.67027   1.00
C6       0.63265    0.66755    0.63370   1.00
C6       0.37292    0.65401    0.63494   1.00
C6       0.57926    0.63723    0.59279   1.00
C6       0.42893    0.62679    0.59537   1.00
C6       0.60755    0.70222    0.57445   1.00
C6       0.39946    0.58753    0.64969   1.00
H2       0.64442    0.69432    0.64637   1.00
H2       0.35980    0.65696    0.66383   1.00
H2       0.62670    0.64730    0.65745   1.00
H2       0.37846    0.68321    0.62370   1.00
H2       0.65541    0.65451    0.61564   1.00
H2       0.35137    0.64046    0.61581   1.00
H2       0.60045    0.62336    0.57348   1.00
H2       0.40902    0.61236    0.57511   1.00
H2       0.57275    0.61667    0.61617   1.00
H2       0.43506    0.65575    0.58374   1.00
H2       0.55255    0.64229    0.57623   1.00
H2       0.45615    0.61030    0.59596   1.00
H2       0.61958    0.72992    0.58461   1.00
H2       0.38617    0.58779    0.67865   1.00
H2       0.62975    0.68803    0.55653   1.00
H2       0.37851    0.57449    0.62954   1.00
H2       0.58261    0.70860    0.55571   1.00
H2       0.42498    0.56851    0.65076   1.00
C4       0.98025    0.74654    0.74669   1.00
C4       1.02191    0.74501    0.74695   1.00
C3       0.95897    0.76942    0.71925   1.00
C3       1.04504    0.76289    0.71738   1.00
C3       0.95854    0.72458    0.77476   1.00
C3       1.04170    0.72491    0.77770   1.00
C2       0.89595    0.74815    0.74490   1.00
C2       1.10622    0.74358    0.74847   1.00
C3       0.91811    0.77010    0.71820   1.00
C3       1.08591    0.76241    0.71816   1.00
C3       0.91696    0.72589    0.77256   1.00
C3       1.08336    0.72528    0.77754   1.00
H1       0.97237    0.78675    0.69924   1.00
H1       1.03306    0.77661    0.69396   1.00
C5       0.97835    0.70229    0.80413   1.00
C5       1.01998    0.70496    0.80739   1.00
H1       0.90451    0.78707    0.69759   1.00
H1       1.10091    0.77599    0.69605   1.00
H1       0.90052    0.71046    0.79185   1.00
H1       1.09848    0.71154    0.79905   1.00
C6       0.95515    0.67596    0.83097   1.00
C6       1.04119    0.68739    0.84195   1.00
H2       0.93345    0.66022    0.81387   1.00
H2       1.06310    0.70800    0.85225   1.00
H2       0.97286    0.65220    0.84227   1.00
H2       1.02228    0.68495    0.86730   1.00
C6       0.93606    0.69827    0.86605   1.00
C6       1.05942    0.64641    0.83298   1.00
H2       0.92292    0.72539    0.85558   1.00
H2       1.07383    0.64713    0.80453   1.00
C6       0.90459    0.67605    0.89060   1.00
C6       1.08911    0.62942    0.86326   1.00
H2       0.95949    0.70733    0.88568   1.00
H2       1.03546    0.62563    0.82973   1.00
C6       0.86735    0.66755    0.86630   1.00
C6       1.12708    0.65401    0.86506   1.00
C6       0.92074    0.63723    0.90721   1.00
C6       1.07107    0.62679    0.90463   1.00
C6       0.89245    0.70222    0.92555   1.00
C6       1.10054    0.58753    0.85031   1.00
H2       0.85558    0.69432    0.85363   1.00
H2       1.14020    0.65696    0.83617   1.00
H2       0.87330    0.64730    0.84255   1.00
H2       1.12154    0.68321    0.87630   1.00
H2       0.84459    0.65451    0.88436   1.00
H2       1.14863    0.64046    0.88419   1.00
H2       0.89955    0.62336    0.92652   1.00
H2       1.09098    0.61236    0.92489   1.00
H2       0.92725    0.61667    0.88383   1.00
H2       1.06494    0.65575    0.91626   1.00
H2       0.94745    0.64229    0.92377   1.00
H2       1.04385    0.61030    0.90404   1.00
H2       0.88042    0.72992    0.91539   1.00
H2       1.11383    0.58779    0.82135   1.00
H2       0.87025    0.68803    0.94347   1.00
H2       1.12149    0.57449    0.87046   1.00
H2       0.91739    0.70860    0.94429   1.00
H2       1.07502    0.56851    0.84924   1.00
C4       0.75331    0.51975    0.74654   1.00
C4       0.75305    0.47809    0.74501   1.00
C3       0.78075    0.54103    0.76942   1.00
C3       0.78262    0.45496    0.76289   1.00
C3       0.72524    0.54146    0.72458   1.00
C3       0.72230    0.45830    0.72491   1.00
C2       0.75510    0.60405    0.74815   1.00
C2       0.75153    0.39378    0.74358   1.00
C3       0.78180    0.58189    0.77010   1.00
C3       0.78184    0.41409    0.76241   1.00
C3       0.72744    0.58304    0.72589   1.00
C3       0.72246    0.41664    0.72528   1.00
H1       0.80076    0.52763    0.78675   1.00
H1       0.80604    0.46694    0.77661   1.00
C5       0.69587    0.52165    0.70229   1.00
C5       0.69261    0.48002    0.70496   1.00
H1       0.80241    0.59549    0.78707   1.00
H1       0.80395    0.39909    0.77599   1.00
H1       0.70815    0.59948    0.71046   1.00
H1       0.70095    0.40152    0.71154   1.00
C6       0.66903    0.54485    0.67596   1.00
C6       0.65805    0.45881    0.68739   1.00
H2       0.68613    0.56655    0.66022   1.00
H2       0.64775    0.43690    0.70800   1.00
H2       0.65773    0.52714    0.65220   1.00
H2       0.63270    0.47772    0.68495   1.00
C6       0.63395    0.56394    0.69827   1.00
C6       0.66702    0.44058    0.64641   1.00
H2       0.64442    0.57708    0.72539   1.00
H2       0.69547    0.42617    0.64713   1.00
C6       0.60940    0.59541    0.67605   1.00
C6       0.63674    0.41089    0.62942   1.00
H2       0.61432    0.54051    0.70733   1.00
H2       0.67027    0.46454    0.62563   1.00
C6       0.63370    0.63265    0.66755   1.00
C6       0.63494    0.37292    0.65401   1.00
C6       0.59279    0.57926    0.63723   1.00
C6       0.59537    0.42893    0.62679   1.00
C6       0.57445    0.60755    0.70222   1.00
C6       0.64969    0.39946    0.58753   1.00
H2       0.64637    0.64442    0.69432   1.00
H2       0.66383    0.35980    0.65696   1.00
H2       0.65745    0.62670    0.64730   1.00
H2       0.62370    0.37846    0.68321   1.00
H2       0.61564    0.65541    0.65451   1.00
H2       0.61581    0.35137    0.64046   1.00
H2       0.57348    0.60045    0.62336   1.00
H2       0.57511    0.40902    0.61236   1.00
H2       0.61617    0.57275    0.61667   1.00
H2       0.58374    0.43506    0.65575   1.00
H2       0.57623    0.55255    0.64229   1.00
H2       0.59596    0.45615    0.61030   1.00
H2       0.58461    0.61958    0.72992   1.00
H2       0.67865    0.38617    0.58779   1.00
H2       0.55653    0.62975    0.68803   1.00
H2       0.62954    0.37851    0.57449   1.00
H2       0.55571    0.58261    0.70860   1.00
H2       0.65076    0.42498    0.56851   1.00
C4       0.74654    0.75331    0.51975   1.00
C4       0.74501    0.75305    0.47809   1.00
C3       0.76942    0.78075    0.54103   1.00
C3       0.76289    0.78262    0.45496   1.00
C3       0.72458    0.72524    0.54146   1.00
C3       0.72491    0.72230    0.45830   1.00
C2       0.74815    0.75510    0.60405   1.00
C2       0.74358    0.75153    0.39378   1.00
C3       0.77010    0.78180    0.58189   1.00
C3       0.76241    0.78184    0.41409   1.00
C3       0.72589    0.72744    0.58304   1.00
C3       0.72528    0.72246    0.41664   1.00
H1       0.78675    0.80076    0.52763   1.00
H1       0.77661    0.80604    0.46694   1.00
C5       0.70229    0.69587    0.52165   1.00
C5       0.70496    0.69261    0.48002   1.00
H1       0.78707    0.80241    0.59549   1.00
H1       0.77599    0.80395    0.39909   1.00
H1       0.71046    0.70815    0.59948   1.00
H1       0.71154    0.70095    0.40152   1.00
C6       0.67596    0.66903    0.54485   1.00
C6       0.68739    0.65805    0.45881   1.00
H2       0.66022    0.68613    0.56655   1.00
H2       0.70800    0.64775    0.43690   1.00
H2       0.65220    0.65773    0.52714   1.00
H2       0.68495    0.63270    0.47772   1.00
C6       0.69827    0.63395    0.56394   1.00
C6       0.64641    0.66702    0.44058   1.00
H2       0.72539    0.64442    0.57708   1.00
H2       0.64713    0.69547    0.42617   1.00
C6       0.67605    0.60940    0.59541   1.00
C6       0.62942    0.63674    0.41089   1.00
H2       0.70733    0.61432    0.54051   1.00
H2       0.62563    0.67027    0.46454   1.00
C6       0.66755    0.63370    0.63265   1.00
C6       0.65401    0.63494    0.37292   1.00
C6       0.63723    0.59279    0.57926   1.00
C6       0.62679    0.59537    0.42893   1.00
C6       0.70222    0.57445    0.60755   1.00
C6       0.58753    0.64969    0.39946   1.00
H2       0.69432    0.64637    0.64442   1.00
H2       0.65696    0.66383    0.35980   1.00
H2       0.64730    0.65745    0.62670   1.00
H2       0.68321    0.62370    0.37846   1.00
H2       0.65451    0.61564    0.65541   1.00
H2       0.64046    0.61581    0.35137   1.00
H2       0.62336    0.57348    0.60045   1.00
H2       0.61236    0.57511    0.40902   1.00
H2       0.61667    0.61617    0.57275   1.00
H2       0.65575    0.58374    0.43506   1.00
H2       0.64229    0.57623    0.55255   1.00
H2       0.61030    0.59596    0.45615   1.00
H2       0.72992    0.58461    0.61958   1.00
H2       0.58779    0.67865    0.38617   1.00
H2       0.68803    0.55653    0.62975   1.00
H2       0.57449    0.62954    0.37851   1.00
H2       0.70860    0.55571    0.58261   1.00
H2       0.56851    0.65076    0.42498   1.00
C4       0.24654    0.24669    0.98025   1.00
C4       0.24501    0.24695    1.02191   1.00
C3       0.26942    0.21925    0.95897   1.00
C3       0.26289    0.21738    1.04504   1.00
C3       0.22458    0.27476    0.95854   1.00
C3       0.22491    0.27770    1.04170   1.00
C2       0.24815    0.24490    0.89595   1.00
C2       0.24358    0.24847    1.10622   1.00
C3       0.27010    0.21820    0.91811   1.00
C3       0.26241    0.21816    1.08591   1.00
C3       0.22589    0.27256    0.91696   1.00
C3       0.22528    0.27754    1.08336   1.00
H1       0.28675    0.19924    0.97237   1.00
H1       0.27661    0.19396    1.03306   1.00
C5       0.20229    0.30413    0.97835   1.00
C5       0.20496    0.30739    1.01998   1.00
H1       0.28707    0.19759    0.90451   1.00
H1       0.27599    0.19605    1.10091   1.00
H1       0.21046    0.29185    0.90052   1.00
H1       0.21154    0.29905    1.09848   1.00
C6       0.17596    0.33097    0.95515   1.00
C6       0.18739    0.34195    1.04119   1.00
H2       0.16022    0.31387    0.93345   1.00
H2       0.20800    0.35225    1.06310   1.00
H2       0.15220    0.34227    0.97286   1.00
H2       0.18495    0.36730    1.02228   1.00
C6       0.19827    0.36605    0.93606   1.00
C6       0.14641    0.33298    1.05942   1.00
H2       0.22539    0.35558    0.92292   1.00
H2       0.14713    0.30453    1.07383   1.00
C6       0.17605    0.39060    0.90459   1.00
C6       0.12942    0.36326    1.08911   1.00
H2       0.20733    0.38568    0.95949   1.00
H2       0.12563    0.32973    1.03546   1.00
C6       0.16755    0.36630    0.86735   1.00
C6       0.15401    0.36506    1.12708   1.00
C6       0.13723    0.40721    0.92074   1.00
C6       0.12679    0.40463    1.07107   1.00
C6       0.20222    0.42555    0.89245   1.00
C6       0.08753    0.35031    1.10054   1.00
H2       0.19432    0.35363    0.85558   1.00
H2       0.15696    0.33617    1.14020   1.00
H2       0.14730    0.34255    0.87330   1.00
H2       0.18321    0.37630    1.12154   1.00
H2       0.15451    0.38436    0.84459   1.00
H2       0.14046    0.38419    1.14863   1.00
H2       0.12336    0.42652    0.89955   1.00
H2       0.11236    0.42489    1.09098   1.00
H2       0.11667    0.38383    0.92725   1.00
H2       0.15575    0.41626    1.06494   1.00
H2       0.14229    0.42377    0.94745   1.00
H2       0.11030    0.40404    1.04385   1.00
H2       0.22992    0.41539    0.88042   1.00
H2       0.08779    0.32135    1.11383   1.00
H2       0.18803    0.44347    0.87025   1.00
H2       0.07449    0.37046    1.12149   1.00
H2       0.20860    0.44429    0.91739   1.00
H2       0.06851    0.34924    1.07502   1.00
C4       0.24669    0.48025    0.74654   1.00
C4       0.24695    0.52191    0.74501   1.00
C3       0.21925    0.45897    0.76942   1.00
C3       0.21738    0.54504    0.76289   1.00
C3       0.27476    0.45854    0.72458   1.00
C3       0.27770    0.54170    0.72491   1.00
C2       0.24490    0.39595    0.74815   1.00
C2       0.24847    0.60622    0.74358   1.00
C3       0.21820    0.41811    0.77010   1.00
C3       0.21816    0.58591    0.76241   1.00
C3       0.27256    0.41696    0.72589   1.00
C3       0.27754    0.58336    0.72528   1.00
H1       0.19924    0.47237    0.78675   1.00
H1       0.19396    0.53306    0.77661   1.00
C5       0.30413    0.47835    0.70229   1.00
C5       0.30739    0.51998    0.70496   1.00
H1       0.19759    0.40451    0.78707   1.00
H1       0.19605    0.60091    0.77599   1.00
H1       0.29185    0.40052    0.71046   1.00
H1       0.29905    0.59848    0.71154   1.00
C6       0.33097    0.45515    0.67596   1.00
C6       0.34195    0.54119    0.68739   1.00
H2       0.31387    0.43345    0.66022   1.00
H2       0.35225    0.56310    0.70800   1.00
H2       0.34227    0.47286    0.65220   1.00
H2       0.36730    0.52228    0.68495   1.00
C6       0.36605    0.43606    0.69827   1.00
C6       0.33298    0.55942    0.64641   1.00
H2       0.35558    0.42292    0.72539   1.00
H2       0.30453    0.57383    0.64713   1.00
C6       0.39060    0.40459    0.67605   1.00
C6       0.36326    0.58911    0.62942   1.00
H2       0.38568    0.45949    0.70733   1.00
H2       0.32973    0.53546    0.62563   1.00
C6       0.36630    0.36735    0.66755   1.00
C6       0.36506    0.62708    0.65401   1.00
C6       0.40721    0.42074    0.63723   1.00
C6       0.40463    0.57107    0.62679   1.00
C6       0.42555    0.39245    0.70222   1.00
C6       0.35031    0.60054    0.58753   1.00
H2       0.35363    0.35558    0.69432   1.00
H2       0.33617    0.64020    0.65696   1.00
H2       0.34255    0.37330    0.64730   1.00
H2       0.37630    0.62154    0.68321   1.00
H2       0.38436    0.34459    0.65451   1.00
H2       0.38419    0.64863    0.64046   1.00
H2       0.42652    0.39955    0.62336   1.00
H2       0.42489    0.59098    0.61236   1.00
H2       0.38383    0.42725    0.61667   1.00
H2       0.41626    0.56494    0.65575   1.00
H2       0.42377    0.44745    0.64229   1.00
H2       0.40404    0.54385    0.61030   1.00
H2       0.41539    0.38042    0.72992   1.00
H2       0.32135    0.61383    0.58779   1.00
H2       0.44347    0.37025    0.68803   1.00
H2       0.37046    0.62149    0.57449   1.00
H2       0.44429    0.41739    0.70860   1.00
H2       0.34924    0.57502    0.56851   1.00
C4       0.01975    0.24654    0.75331   1.00
C4       -0.02191   0.24501    0.75305   1.00
C3       0.04103    0.26942    0.78075   1.00
C3       -0.04504   0.26289    0.78262   1.00
C3       0.04146    0.22458    0.72524   1.00
C3       -0.04170   0.22491    0.72230   1.00
C2       0.10405    0.24815    0.75510   1.00
C2       -0.10622   0.24358    0.75153   1.00
C3       0.08189    0.27010    0.78180   1.00
C3       -0.08591   0.26241    0.78184   1.00
C3       0.08304    0.22589    0.72744   1.00
C3       -0.08336   0.22528    0.72246   1.00
H1       0.02763    0.28675    0.80076   1.00
H1       -0.03306   0.27661    0.80604   1.00
C5       0.02165    0.20229    0.69587   1.00
C5       -0.01998   0.20496    0.69261   1.00
H1       0.09549    0.28707    0.80241   1.00
H1       -0.10091   0.27599    0.80395   1.00
H1       0.09948    0.21046    0.70815   1.00
H1       -0.09848   0.21154    0.70095   1.00
C6       0.04485    0.17596    0.66903   1.00
C6       -0.04119   0.18739    0.65805   1.00
H2       0.06655    0.16022    0.68613   1.00
H2       -0.06310   0.20800    0.64775   1.00
H2       0.02714    0.15220    0.65773   1.00
H2       -0.02228   0.18495    0.63270   1.00
C6       0.06394    0.19827    0.63395   1.00
C6       -0.05942   0.14641    0.66702   1.00
H2       0.07708    0.22539    0.64442   1.00
H2       -0.07383   0.14713    0.69547   1.00
C6       0.09541    0.17605    0.60940   1.00
C6       -0.08911   0.12942    0.63674   1.00
H2       0.04051    0.20733    0.61432   1.00
H2       -0.03546   0.12563    0.67027   1.00
C6       0.13265    0.16755    0.63370   1.00
C6       -0.12708   0.15401    0.63494   1.00
C6       0.07926    0.13723    0.59279   1.00
C6       -0.07107   0.12679    0.59537   1.00
C6       0.10755    0.20222    0.57445   1.00
C6       -0.10054   0.08753    0.64969   1.00
H2       0.14442    0.19432    0.64637   1.00
H2       -0.14020   0.15696    0.66383   1.00
H2       0.12670    0.14730    0.65745   1.00
H2       -0.12154   0.18321    0.62370   1.00
H2       0.15541    0.15451    0.61564   1.00
H2       -0.14863   0.14046    0.61581   1.00
H2       0.10045    0.12336    0.57348   1.00
H2       -0.09098   0.11236    0.57511   1.00
H2       0.07275    0.11667    0.61617   1.00
H2       -0.06494   0.15575    0.58374   1.00
H2       0.05255    0.14229    0.57623   1.00
H2       -0.04385   0.11030    0.59596   1.00
H2       0.11958    0.22992    0.58461   1.00
H2       -0.11383   0.08779    0.67865   1.00
H2       0.12975    0.18803    0.55653   1.00
H2       -0.12149   0.07449    0.62954   1.00
H2       0.08261    0.20860    0.55571   1.00
H2       -0.07502   0.06851    0.65076   1.00
C4       0.48025    0.24654    0.74669   1.00
C4       0.52191    0.24501    0.74695   1.00
C3       0.45897    0.26942    0.71925   1.00
C3       0.54504    0.26289    0.71738   1.00
C3       0.45854    0.22458    0.77476   1.00
C3       0.54170    0.22491    0.77770   1.00
C2       0.39595    0.24815    0.74490   1.00
C2       0.60622    0.24358    0.74847   1.00
C3       0.41811    0.27010    0.71820   1.00
C3       0.58591    0.26241    0.71816   1.00
C3       0.41696    0.22589    0.77256   1.00
C3       0.58336    0.22528    0.77754   1.00
H1       0.47237    0.28675    0.69924   1.00
H1       0.53306    0.27661    0.69396   1.00
C5       0.47835    0.20229    0.80413   1.00
C5       0.51998    0.20496    0.80739   1.00
H1       0.40451    0.28707    0.69759   1.00
H1       0.60091    0.27599    0.69605   1.00
H1       0.40052    0.21046    0.79185   1.00
H1       0.59848    0.21154    0.79905   1.00
C6       0.45515    0.17596    0.83097   1.00
C6       0.54119    0.18739    0.84195   1.00
H2       0.43345    0.16022    0.81387   1.00
H2       0.56310    0.20800    0.85225   1.00
H2       0.47286    0.15220    0.84227   1.00
H2       0.52228    0.18495    0.86730   1.00
C6       0.43606    0.19827    0.86605   1.00
C6       0.55942    0.14641    0.83298   1.00
H2       0.42292    0.22539    0.85558   1.00
H2       0.57383    0.14713    0.80453   1.00
C6       0.40459    0.17605    0.89060   1.00
C6       0.58911    0.12942    0.86326   1.00
H2       0.45949    0.20733    0.88568   1.00
H2       0.53546    0.12563    0.82973   1.00
C6       0.36735    0.16755    0.86630   1.00
C6       0.62708    0.15401    0.86506   1.00
C6       0.42074    0.13723    0.90721   1.00
C6       0.57107    0.12679    0.90463   1.00
C6       0.39245    0.20222    0.92555   1.00
C6       0.60054    0.08753    0.85031   1.00
H2       0.35558    0.19432    0.85363   1.00
H2       0.64020    0.15696    0.83617   1.00
H2       0.37330    0.14730    0.84255   1.00
H2       0.62154    0.18321    0.87630   1.00
H2       0.34459    0.15451    0.88436   1.00
H2       0.64863    0.14046    0.88419   1.00
H2       0.39955    0.12336    0.92652   1.00
H2       0.59098    0.11236    0.92489   1.00
H2       0.42725    0.11667    0.88383   1.00
H2       0.56494    0.15575    0.91626   1.00
H2       0.44745    0.14229    0.92377   1.00
H2       0.54385    0.11030    0.90404   1.00
H2       0.38042    0.22992    0.91539   1.00
H2       0.61383    0.08779    0.82135   1.00
H2       0.37025    0.18803    0.94347   1.00
H2       0.62149    0.07449    0.87046   1.00
H2       0.41739    0.20860    0.94429   1.00
H2       0.57502    0.06851    0.84924   1.00
C4       0.25331    0.01975    0.74654   1.00
C4       0.25305    -0.02191   0.74501   1.00
C3       0.28075    0.04103    0.76942   1.00
C3       0.28262    -0.04504   0.76289   1.00
C3       0.22524    0.04146    0.72458   1.00
C3       0.22230    -0.04170   0.72491   1.00
C2       0.25510    0.10405    0.74815   1.00
C2       0.25153    -0.10622   0.74358   1.00
C3       0.28180    0.08189    0.77010   1.00
C3       0.28184    -0.08591   0.76241   1.00
C3       0.22744    0.08304    0.72589   1.00
C3       0.22246    -0.08336   0.72528   1.00
H1       0.30076    0.02763    0.78675   1.00
H1       0.30604    -0.03306   0.77661   1.00
C5       0.19587    0.02165    0.70229   1.00
C5       0.19261    -0.01998   0.70496   1.00
H1       0.30241    0.09549    0.78707   1.00
H1       0.30395    -0.10091   0.77599   1.00
H1       0.20815    0.09948    0.71046   1.00
H1       0.20095    -0.09848   0.71154   1.00
C6       0.16903    0.04485    0.67596   1.00
C6       0.15805    -0.04119   0.68739   1.00
H2       0.18613    0.06655    0.66022   1.00
H2       0.14775    -0.06310   0.70800   1.00
H2       0.15773    0.02714    0.65220   1.00
H2       0.13270    -0.02228   0.68495   1.00
C6       0.13395    0.06394    0.69827   1.00
C6       0.16702    -0.05942   0.64641   1.00
H2       0.14442    0.07708    0.72539   1.00
H2       0.19547    -0.07383   0.64713   1.00
C6       0.10940    0.09541    0.67605   1.00
C6       0.13674    -0.08911   0.62942   1.00
H2       0.11432    0.04051    0.70733   1.00
H2       0.17027    -0.03546   0.62563   1.00
C6       0.13370    0.13265    0.66755   1.00
C6       0.13494    -0.12708   0.65401   1.00
C6       0.09279    0.07926    0.63723   1.00
C6       0.09537    -0.07107   0.62679   1.00
C6       0.07445    0.10755    0.70222   1.00
C6       0.14969    -0.10054   0.58753   1.00
H2       0.14637    0.14442    0.69432   1.00
H2       0.16383    -0.14020   0.65696   1.00
H2       0.15745    0.12670    0.64730   1.00
H2       0.12370    -0.12154   0.68321   1.00
H2       0.11564    0.15541    0.65451   1.00
H2       0.11581    -0.14863   0.64046   1.00
H2       0.07348    0.10045    0.62336   1.00
H2       0.07511    -0.09098   0.61236   1.00
H2       0.11617    0.07275    0.61667   1.00
H2       0.08374    -0.06494   0.65575   1.00
H2       0.07623    0.05255    0.64229   1.00
H2       0.09596    -0.04385   0.61030   1.00
H2       0.08461    0.11958    0.72992   1.00
H2       0.17865    -0.11383   0.58779   1.00
H2       0.05653    0.12975    0.68803   1.00
H2       0.12954    -0.12149   0.57449   1.00
H2       0.05571    0.08261    0.70860   1.00
H2       0.15076    -0.07502   0.56851   1.00
C4       0.24654    0.25331    0.51975   1.00
C4       0.24501    0.25305    0.47809   1.00
C3       0.26942    0.28075    0.54103   1.00
C3       0.26289    0.28262    0.45496   1.00
C3       0.22458    0.22524    0.54146   1.00
C3       0.22491    0.22230    0.45830   1.00
C2       0.24815    0.25510    0.60405   1.00
C2       0.24358    0.25153    0.39378   1.00
C3       0.27010    0.28180    0.58189   1.00
C3       0.26241    0.28184    0.41409   1.00
C3       0.22589    0.22744    0.58304   1.00
C3       0.22528    0.22246    0.41664   1.00
H1       0.28675    0.30076    0.52763   1.00
H1       0.27661    0.30604    0.46694   1.00
C5       0.20229    0.19587    0.52165   1.00
C5       0.20496    0.19261    0.48002   1.00
H1       0.28707    0.30241    0.59549   1.00
H1       0.27599    0.30395    0.39909   1.00
H1       0.21046    0.20815    0.59948   1.00
H1       0.21154    0.20095    0.40152   1.00
C6       0.17596    0.16903    0.54485   1.00
C6       0.18739    0.15805    0.45881   1.00
H2       0.16022    0.18613    0.56655   1.00
H2       0.20800    0.14775    0.43690   1.00
H2       0.15220    0.15773    0.52714   1.00
H2       0.18495    0.13270    0.47772   1.00
C6       0.19827    0.13395    0.56394   1.00
C6       0.14641    0.16702    0.44058   1.00
H2       0.22539    0.14442    0.57708   1.00
H2       0.14713    0.19547    0.42617   1.00
C6       0.17605    0.10940    0.59541   1.00
C6       0.12942    0.13674    0.41089   1.00
H2       0.20733    0.11432    0.54051   1.00
H2       0.12563    0.17027    0.46454   1.00
C6       0.16755    0.13370    0.63265   1.00
C6       0.15401    0.13494    0.37292   1.00
C6       0.13723    0.09279    0.57926   1.00
C6       0.12679    0.09537    0.42893   1.00
C6       0.20222    0.07445    0.60755   1.00
C6       0.08753    0.14969    0.39946   1.00
H2       0.19432    0.14637    0.64442   1.00
H2       0.15696    0.16383    0.35980   1.00
H2       0.14730    0.15745    0.62670   1.00
H2       0.18321    0.12370    0.37846   1.00
H2       0.15451    0.11564    0.65541   1.00
H2       0.14046    0.11581    0.35137   1.00
H2       0.12336    0.07348    0.60045   1.00
H2       0.11236    0.07511    0.40902   1.00
H2       0.11667    0.11617    0.57275   1.00
H2       0.15575    0.08374    0.43506   1.00
H2       0.14229    0.07623    0.55255   1.00
H2       0.11030    0.09596    0.45615   1.00
H2       0.22992    0.08461    0.61958   1.00
H2       0.08779    0.17865    0.38617   1.00
H2       0.18803    0.05653    0.62975   1.00
H2       0.07449    0.12954    0.37851   1.00
H2       0.20860    0.05571    0.58261   1.00
H2       0.06851    0.15076    0.42498   1.00
C4       0.24654    0.74669    0.48025   1.00
C4       0.24501    0.74695    0.52191   1.00
C3       0.26942    0.71925    0.45897   1.00
C3       0.26289    0.71738    0.54504   1.00
C3       0.22458    0.77476    0.45854   1.00
C3       0.22491    0.77770    0.54170   1.00
C2       0.24815    0.74490    0.39595   1.00
C2       0.24358    0.74847    0.60622   1.00
C3       0.27010    0.71820    0.41811   1.00
C3       0.26241    0.71816    0.58591   1.00
C3       0.22589    0.77256    0.41696   1.00
C3       0.22528    0.77754    0.58336   1.00
H1       0.28675    0.69924    0.47237   1.00
H1       0.27661    0.69396    0.53306   1.00
C5       0.20229    0.80413    0.47835   1.00
C5       0.20496    0.80739    0.51998   1.00
H1       0.28707    0.69759    0.40451   1.00
H1       0.27599    0.69605    0.60091   1.00
H1       0.21046    0.79185    0.40052   1.00
H1       0.21154    0.79905    0.59848   1.00
C6       0.17596    0.83097    0.45515   1.00
C6       0.18739    0.84195    0.54119   1.00
H2       0.16022    0.81387    0.43345   1.00
H2       0.20800    0.85225    0.56310   1.00
H2       0.15220    0.84227    0.47286   1.00
H2       0.18495    0.86730    0.52228   1.00
C6       0.19827    0.86605    0.43606   1.00
C6       0.14641    0.83298    0.55942   1.00
H2       0.22539    0.85558    0.42292   1.00
H2       0.14713    0.80453    0.57383   1.00
C6       0.17605    0.89060    0.40459   1.00
C6       0.12942    0.86326    0.58911   1.00
H2       0.20733    0.88568    0.45949   1.00
H2       0.12563    0.82973    0.53546   1.00
C6       0.16755    0.86630    0.36735   1.00
C6       0.15401    0.86506    0.62708   1.00
C6       0.13723    0.90721    0.42074   1.00
C6       0.12679    0.90463    0.57107   1.00
C6       0.20222    0.92555    0.39245   1.00
C6       0.08753    0.85031    0.60054   1.00
H2       0.19432    0.85363    0.35558   1.00
H2       0.15696    0.83617    0.64020   1.00
H2       0.14730    0.84255    0.37330   1.00
H2       0.18321    0.87630    0.62154   1.00
H2       0.15451    0.88436    0.34459   1.00
H2       0.14046    0.88419    0.64863   1.00
H2       0.12336    0.92652    0.39955   1.00
H2       0.11236    0.92489    0.59098   1.00
H2       0.11667    0.88383    0.42725   1.00
H2       0.15575    0.91626    0.56494   1.00
H2       0.14229    0.92377    0.44745   1.00
H2       0.11030    0.90404    0.54385   1.00
H2       0.22992    0.91539    0.38042   1.00
H2       0.08779    0.82135    0.61383   1.00
H2       0.18803    0.94347    0.37025   1.00
H2       0.07449    0.87046    0.62149   1.00
H2       0.20860    0.94429    0.41739   1.00
H2       0.06851    0.84924    0.57502   1.00
C4       0.24669    0.98025    0.24654   1.00
C4       0.24695    1.02191    0.24501   1.00
C3       0.21925    0.95897    0.26942   1.00
C3       0.21738    1.04504    0.26289   1.00
C3       0.27476    0.95854    0.22458   1.00
C3       0.27770    1.04170    0.22491   1.00
C2       0.24490    0.89595    0.24815   1.00
C2       0.24847    1.10622    0.24358   1.00
C3       0.21820    0.91811    0.27010   1.00
C3       0.21816    1.08591    0.26241   1.00
C3       0.27256    0.91696    0.22589   1.00
C3       0.27754    1.08336    0.22528   1.00
H1       0.19924    0.97237    0.28675   1.00
H1       0.19396    1.03306    0.27661   1.00
C5       0.30413    0.97835    0.20229   1.00
C5       0.30739    1.01998    0.20496   1.00
H1       0.19759    0.90451    0.28707   1.00
H1       0.19605    1.10091    0.27599   1.00
H1       0.29185    0.90052    0.21046   1.00
H1       0.29905    1.09848    0.21154   1.00
C6       0.33097    0.95515    0.17596   1.00
C6       0.34195    1.04119    0.18739   1.00
H2       0.31387    0.93345    0.16022   1.00
H2       0.35225    1.06310    0.20800   1.00
H2       0.34227    0.97286    0.15220   1.00
H2       0.36730    1.02228    0.18495   1.00
C6       0.36605    0.93606    0.19827   1.00
C6       0.33298    1.05942    0.14641   1.00
H2       0.35558    0.92292    0.22539   1.00
H2       0.30453    1.07383    0.14713   1.00
C6       0.39060    0.90459    0.17605   1.00
C6       0.36326    1.08911    0.12942   1.00
H2       0.38568    0.95949    0.20733   1.00
H2       0.32973    1.03546    0.12563   1.00
C6       0.36630    0.86735    0.16755   1.00
C6       0.36506    1.12708    0.15401   1.00
C6       0.40721    0.92074    0.13723   1.00
C6       0.40463    1.07107    0.12679   1.00
C6       0.42555    0.89245    0.20222   1.00
C6       0.35031    1.10054    0.08753   1.00
H2       0.35363    0.85558    0.19432   1.00
H2       0.33617    1.14020    0.15696   1.00
H2       0.34255    0.87330    0.14730   1.00
H2       0.37630    1.12154    0.18321   1.00
H2       0.38436    0.84459    0.15451   1.00
H2       0.38419    1.14863    0.14046   1.00
H2       0.42652    0.89955    0.12336   1.00
H2       0.42489    1.09098    0.11236   1.00
H2       0.38383    0.92725    0.11667   1.00
H2       0.41626    1.06494    0.15575   1.00
H2       0.42377    0.94745    0.14229   1.00
H2       0.40404    1.04385    0.11030   1.00
H2       0.41539    0.88042    0.22992   1.00
H2       0.32135    1.11383    0.08779   1.00
H2       0.44347    0.87025    0.18803   1.00
H2       0.37046    1.12149    0.07449   1.00
H2       0.44429    0.91739    0.20860   1.00
H2       0.34924    1.07502    0.06851   1.00
C4       0.01975    0.74654    0.25331   1.00
C4       -0.02191   0.74501    0.25305   1.00
C3       0.04103    0.76942    0.28075   1.00
C3       -0.04504   0.76289    0.28262   1.00
C3       0.04146    0.72458    0.22524   1.00
C3       -0.04170   0.72491    0.22230   1.00
C2       0.10405    0.74815    0.25510   1.00
C2       -0.10622   0.74358    0.25153   1.00
C3       0.08189    0.77010    0.28180   1.00
C3       -0.08591   0.76241    0.28184   1.00
C3       0.08304    0.72589    0.22744   1.00
C3       -0.08336   0.72528    0.22246   1.00
H1       0.02763    0.78675    0.30076   1.00
H1       -0.03306   0.77661    0.30604   1.00
C5       0.02165    0.70229    0.19587   1.00
C5       -0.01998   0.70496    0.19261   1.00
H1       0.09549    0.78707    0.30241   1.00
H1       -0.10091   0.77599    0.30395   1.00
H1       0.09948    0.71046    0.20815   1.00
H1       -0.09848   0.71154    0.20095   1.00
C6       0.04485    0.67596    0.16903   1.00
C6       -0.04119   0.68739    0.15805   1.00
H2       0.06655    0.66022    0.18613   1.00
H2       -0.06310   0.70800    0.14775   1.00
H2       0.02714    0.65220    0.15773   1.00
H2       -0.02228   0.68495    0.13270   1.00
C6       0.06394    0.69827    0.13395   1.00
C6       -0.05942   0.64641    0.16702   1.00
H2       0.07708    0.72539    0.14442   1.00
H2       -0.07383   0.64713    0.19547   1.00
C6       0.09541    0.67605    0.10940   1.00
C6       -0.08911   0.62942    0.13674   1.00
H2       0.04051    0.70733    0.11432   1.00
H2       -0.03546   0.62563    0.17027   1.00
C6       0.13265    0.66755    0.13370   1.00
C6       -0.12708   0.65401    0.13494   1.00
C6       0.07926    0.63723    0.09279   1.00
C6       -0.07107   0.62679    0.09537   1.00
C6       0.10755    0.70222    0.07445   1.00
C6       -0.10054   0.58753    0.14969   1.00
H2       0.14442    0.69432    0.14637   1.00
H2       -0.14020   0.65696    0.16383   1.00
H2       0.12670    0.64730    0.15745   1.00
H2       -0.12154   0.68321    0.12370   1.00
H2       0.15541    0.65451    0.11564   1.00
H2       -0.14863   0.64046    0.11581   1.00
H2       0.10045    0.62336    0.07348   1.00
H2       -0.09098   0.61236    0.07511   1.00
H2       0.07275    0.61667    0.11617   1.00
H2       -0.06494   0.65575    0.08374   1.00
H2       0.05255    0.64229    0.07623   1.00
H2       -0.04385   0.61030    0.09596   1.00
H2       0.11958    0.72992    0.08461   1.00
H2       -0.11383   0.58779    0.17865   1.00
H2       0.12975    0.68803    0.05653   1.00
H2       -0.12149   0.57449    0.12954   1.00
H2       0.08261    0.70860    0.05571   1.00
H2       -0.07502   0.56851    0.15076   1.00
C4       0.48025    0.74654    0.24669   1.00
C4       0.52191    0.74501    0.24695   1.00
C3       0.45897    0.76942    0.21925   1.00
C3       0.54504    0.76289    0.21738   1.00
C3       0.45854    0.72458    0.27476   1.00
C3       0.54170    0.72491    0.27770   1.00
C2       0.39595    0.74815    0.24490   1.00
C2       0.60622    0.74358    0.24847   1.00
C3       0.41811    0.77010    0.21820   1.00
C3       0.58591    0.76241    0.21816   1.00
C3       0.41696    0.72589    0.27256   1.00
C3       0.58336    0.72528    0.27754   1.00
H1       0.47237    0.78675    0.19924   1.00
H1       0.53306    0.77661    0.19396   1.00
C5       0.47835    0.70229    0.30413   1.00
C5       0.51998    0.70496    0.30739   1.00
H1       0.40451    0.78707    0.19759   1.00
H1       0.60091    0.77599    0.19605   1.00
H1       0.40052    0.71046    0.29185   1.00
H1       0.59848    0.71154    0.29905   1.00
C6       0.45515    0.67596    0.33097   1.00
C6       0.54119    0.68739    0.34195   1.00
H2       0.43345    0.66022    0.31387   1.00
H2       0.56310    0.70800    0.35225   1.00
H2       0.47286    0.65220    0.34227   1.00
H2       0.52228    0.68495    0.36730   1.00
C6       0.43606    0.69827    0.36605   1.00
C6       0.55942    0.64641    0.33298   1.00
H2       0.42292    0.72539    0.35558   1.00
H2       0.57383    0.64713    0.30453   1.00
C6       0.40459    0.67605    0.39060   1.00
C6       0.58911    0.62942    0.36326   1.00
H2       0.45949    0.70733    0.38568   1.00
H2       0.53546    0.62563    0.32973   1.00
C6       0.36735    0.66755    0.36630   1.00
C6       0.62708    0.65401    0.36506   1.00
C6       0.42074    0.63723    0.40721   1.00
C6       0.57107    0.62679    0.40463   1.00
C6       0.39245    0.70222    0.42555   1.00
C6       0.60054    0.58753    0.35031   1.00
H2       0.35558    0.69432    0.35363   1.00
H2       0.64020    0.65696    0.33617   1.00
H2       0.37330    0.64730    0.34255   1.00
H2       0.62154    0.68321    0.37630   1.00
H2       0.34459    0.65451    0.38436   1.00
H2       0.64863    0.64046    0.38419   1.00
H2       0.39955    0.62336    0.42652   1.00
H2       0.59098    0.61236    0.42489   1.00
H2       0.42725    0.61667    0.38383   1.00
H2       0.56494    0.65575    0.41626   1.00
H2       0.44745    0.64229    0.42377   1.00
H2       0.54385    0.61030    0.40404   1.00
H2       0.38042    0.72992    0.41539   1.00
H2       0.61383    0.58779    0.32135   1.00
H2       0.37025    0.68803    0.44347   1.00
H2       0.62149    0.57449    0.37046   1.00
H2       0.41739    0.70860    0.44429   1.00
H2       0.57502    0.56851    0.34924   1.00
C4       0.25331    0.51975    0.24654   1.00
C4       0.25305    0.47809    0.24501   1.00
C3       0.28075    0.54103    0.26942   1.00
C3       0.28262    0.45496    0.26289   1.00
C3       0.22524    0.54146    0.22458   1.00
C3       0.22230    0.45830    0.22491   1.00
C2       0.25510    0.60405    0.24815   1.00
C2       0.25153    0.39378    0.24358   1.00
C3       0.28180    0.58189    0.27010   1.00
C3       0.28184    0.41409    0.26241   1.00
C3       0.22744    0.58304    0.22589   1.00
C3       0.22246    0.41664    0.22528   1.00
H1       0.30076    0.52763    0.28675   1.00
H1       0.30604    0.46694    0.27661   1.00
C5       0.19587    0.52165    0.20229   1.00
C5       0.19261    0.48002    0.20496   1.00
H1       0.30241    0.59549    0.28707   1.00
H1       0.30395    0.39909    0.27599   1.00
H1       0.20815    0.59948    0.21046   1.00
H1       0.20095    0.40152    0.21154   1.00
C6       0.16903    0.54485    0.17596   1.00
C6       0.15805    0.45881    0.18739   1.00
H2       0.18613    0.56655    0.16022   1.00
H2       0.14775    0.43690    0.20800   1.00
H2       0.15773    0.52714    0.15220   1.00
H2       0.13270    0.47772    0.18495   1.00
C6       0.13395    0.56394    0.19827   1.00
C6       0.16702    0.44058    0.14641   1.00
H2       0.14442    0.57708    0.22539   1.00
H2       0.19547    0.42617    0.14713   1.00
C6       0.10940    0.59541    0.17605   1.00
C6       0.13674    0.41089    0.12942   1.00
H2       0.11432    0.54051    0.20733   1.00
H2       0.17027    0.46454    0.12563   1.00
C6       0.13370    0.63265    0.16755   1.00
C6       0.13494    0.37292    0.15401   1.00
C6       0.09279    0.57926    0.13723   1.00
C6       0.09537    0.42893    0.12679   1.00
C6       0.07445    0.60755    0.20222   1.00
C6       0.14969    0.39946    0.08753   1.00
H2       0.14637    0.64442    0.19432   1.00
H2       0.16383    0.35980    0.15696   1.00
H2       0.15745    0.62670    0.14730   1.00
H2       0.12370    0.37846    0.18321   1.00
H2       0.11564    0.65541    0.15451   1.00
H2       0.11581    0.35137    0.14046   1.00
H2       0.07348    0.60045    0.12336   1.00
H2       0.07511    0.40902    0.11236   1.00
H2       0.11617    0.57275    0.11667   1.00
H2       0.08374    0.43506    0.15575   1.00
H2       0.07623    0.55255    0.14229   1.00
H2       0.09596    0.45615    0.11030   1.00
H2       0.08461    0.61958    0.22992   1.00
H2       0.17865    0.38617    0.08779   1.00
H2       0.05653    0.62975    0.18803   1.00
H2       0.12954    0.37851    0.07449   1.00
H2       0.05571    0.58261    0.20860   1.00
H2       0.15076    0.42498    0.06851   1.00
C4       0.24654    0.75331    0.01975   1.00
C4       0.24501    0.75305    -0.02191   1.00
C3       0.26942    0.78075    0.04103   1.00
C3       0.26289    0.78262    -0.04504   1.00
C3       0.22458    0.72524    0.04146   1.00
C3       0.22491    0.72230    -0.04170   1.00
C2       0.24815    0.75510    0.10405   1.00
C2       0.24358    0.75153    -0.10622   1.00
C3       0.27010    0.78180    0.08189   1.00
C3       0.26241    0.78184    -0.08591   1.00
C3       0.22589    0.72744    0.08304   1.00
C3       0.22528    0.72246    -0.08336   1.00
H1       0.28675    0.80076    0.02763   1.00
H1       0.27661    0.80604    -0.03306   1.00
C5       0.20229    0.69587    0.02165   1.00
C5       0.20496    0.69261    -0.01998   1.00
H1       0.28707    0.80241    0.09549   1.00
H1       0.27599    0.80395    -0.10091   1.00
H1       0.21046    0.70815    0.09948   1.00
H1       0.21154    0.70095    -0.09848   1.00
C6       0.17596    0.66903    0.04485   1.00
C6       0.18739    0.65805    -0.04119   1.00
H2       0.16022    0.68613    0.06655   1.00
H2       0.20800    0.64775    -0.06310   1.00
H2       0.15220    0.65773    0.02714   1.00
H2       0.18495    0.63270    -0.02228   1.00
C6       0.19827    0.63395    0.06394   1.00
C6       0.14641    0.66702    -0.05942   1.00
H2       0.22539    0.64442    0.07708   1.00
H2       0.14713    0.69547    -0.07383   1.00
C6       0.17605    0.60940    0.09541   1.00
C6       0.12942    0.63674    -0.08911   1.00
H2       0.20733    0.61432    0.04051   1.00
H2       0.12563    0.67027    -0.03546   1.00
C6       0.16755    0.63370    0.13265   1.00
C6       0.15401    0.63494    -0.12708   1.00
C6       0.13723    0.59279    0.07926   1.00
C6       0.12679    0.59537    -0.07107   1.00
C6       0.20222    0.57445    0.10755   1.00
C6       0.08753    0.64969    -0.10054   1.00
H2       0.19432    0.64637    0.14442   1.00
H2       0.15696    0.66383    -0.14020   1.00
H2       0.14730    0.65745    0.12670   1.00
H2       0.18321    0.62370    -0.12154   1.00
H2       0.15451    0.61564    0.15541   1.00
H2       0.14046    0.61581    -0.14863   1.00
H2       0.12336    0.57348    0.10045   1.00
H2       0.11236    0.57511    -0.09098   1.00
H2       0.11667    0.61617    0.07275   1.00
H2       0.15575    0.58374    -0.06494   1.00
H2       0.14229    0.57623    0.05255   1.00
H2       0.11030    0.59596    -0.04385   1.00
H2       0.22992    0.58461    0.11958   1.00
H2       0.08779    0.67865    -0.11383   1.00
H2       0.18803    0.55653    0.12975   1.00
H2       0.07449    0.62954    -0.12149   1.00
H2       0.20860    0.55571    0.08261   1.00
H2       0.06851    0.65076    -0.07502   1.00
C4       0.74654    0.24669    0.48025   1.00
C4       0.74501    0.24695    0.52191   1.00
C3       0.76942    0.21925    0.45897   1.00
C3       0.76289    0.21738    0.54504   1.00
C3       0.72458    0.27476    0.45854   1.00
C3       0.72491    0.27770    0.54170   1.00
C2       0.74815    0.24490    0.39595   1.00
C2       0.74358    0.24847    0.60622   1.00
C3       0.77010    0.21820    0.41811   1.00
C3       0.76241    0.21816    0.58591   1.00
C3       0.72589    0.27256    0.41696   1.00
C3       0.72528    0.27754    0.58336   1.00
H1       0.78675    0.19924    0.47237   1.00
H1       0.77661    0.19396    0.53306   1.00
C5       0.70229    0.30413    0.47835   1.00
C5       0.70496    0.30739    0.51998   1.00
H1       0.78707    0.19759    0.40451   1.00
H1       0.77599    0.19605    0.60091   1.00
H1       0.71046    0.29185    0.40052   1.00
H1       0.71154    0.29905    0.59848   1.00
C6       0.67596    0.33097    0.45515   1.00
C6       0.68739    0.34195    0.54119   1.00
H2       0.66022    0.31387    0.43345   1.00
H2       0.70800    0.35225    0.56310   1.00
H2       0.65220    0.34227    0.47286   1.00
H2       0.68495    0.36730    0.52228   1.00
C6       0.69827    0.36605    0.43606   1.00
C6       0.64641    0.33298    0.55942   1.00
H2       0.72539    0.35558    0.42292   1.00
H2       0.64713    0.30453    0.57383   1.00
C6       0.67605    0.39060    0.40459   1.00
C6       0.62942    0.36326    0.58911   1.00
H2       0.70733    0.38568    0.45949   1.00
H2       0.62563    0.32973    0.53546   1.00
C6       0.66755    0.36630    0.36735   1.00
C6       0.65401    0.36506    0.62708   1.00
C6       0.63723    0.40721    0.42074   1.00
C6       0.62679    0.40463    0.57107   1.00
C6       0.70222    0.42555    0.39245   1.00
C6       0.58753    0.35031    0.60054   1.00
H2       0.69432    0.35363    0.35558   1.00
H2       0.65696    0.33617    0.64020   1.00
H2       0.64730    0.34255    0.37330   1.00
H2       0.68321    0.37630    0.62154   1.00
H2       0.65451    0.38436    0.34459   1.00
H2       0.64046    0.38419    0.64863   1.00
H2       0.62336    0.42652    0.39955   1.00
H2       0.61236    0.42489    0.59098   1.00
H2       0.61667    0.38383    0.42725   1.00
H2       0.65575    0.41626    0.56494   1.00
H2       0.64229    0.42377    0.44745   1.00
H2       0.61030    0.40404    0.54385   1.00
H2       0.72992    0.41539    0.38042   1.00
H2       0.58779    0.32135    0.61383   1.00
H2       0.68803    0.44347    0.37025   1.00
H2       0.57449    0.37046    0.62149   1.00
H2       0.70860    0.44429    0.41739   1.00
H2       0.56851    0.34924    0.57502   1.00
C4       0.74669    0.48025    0.24654   1.00
C4       0.74695    0.52191    0.24501   1.00
C3       0.71925    0.45897    0.26942   1.00
C3       0.71738    0.54504    0.26289   1.00
C3       0.77476    0.45854    0.22458   1.00
C3       0.77770    0.54170    0.22491   1.00
C2       0.74490    0.39595    0.24815   1.00
C2       0.74847    0.60622    0.24358   1.00
C3       0.71820    0.41811    0.27010   1.00
C3       0.71816    0.58591    0.26241   1.00
C3       0.77256    0.41696    0.22589   1.00
C3       0.77754    0.58336    0.22528   1.00
H1       0.69924    0.47237    0.28675   1.00
H1       0.69396    0.53306    0.27661   1.00
C5       0.80413    0.47835    0.20229   1.00
C5       0.80739    0.51998    0.20496   1.00
H1       0.69759    0.40451    0.28707   1.00
H1       0.69605    0.60091    0.27599   1.00
H1       0.79185    0.40052    0.21046   1.00
H1       0.79905    0.59848    0.21154   1.00
C6       0.83097    0.45515    0.17596   1.00
C6       0.84195    0.54119    0.18739   1.00
H2       0.81387    0.43345    0.16022   1.00
H2       0.85225    0.56310    0.20800   1.00
H2       0.84227    0.47286    0.15220   1.00
H2       0.86730    0.52228    0.18495   1.00
C6       0.86605    0.43606    0.19827   1.00
C6       0.83298    0.55942    0.14641   1.00
H2       0.85558    0.42292    0.22539   1.00
H2       0.80453    0.57383    0.14713   1.00
C6       0.89060    0.40459    0.17605   1.00
C6       0.86326    0.58911    0.12942   1.00
H2       0.88568    0.45949    0.20733   1.00
H2       0.82973    0.53546    0.12563   1.00
C6       0.86630    0.36735    0.16755   1.00
C6       0.86506    0.62708    0.15401   1.00
C6       0.90721    0.42074    0.13723   1.00
C6       0.90463    0.57107    0.12679   1.00
C6       0.92555    0.39245    0.20222   1.00
C6       0.85031    0.60054    0.08753   1.00
H2       0.85363    0.35558    0.19432   1.00
H2       0.83617    0.64020    0.15696   1.00
H2       0.84255    0.37330    0.14730   1.00
H2       0.87630    0.62154    0.18321   1.00
H2       0.88436    0.34459    0.15451   1.00
H2       0.88419    0.64863    0.14046   1.00
H2       0.92652    0.39955    0.12336   1.00
H2       0.92489    0.59098    0.11236   1.00
H2       0.88383    0.42725    0.11667   1.00
H2       0.91626    0.56494    0.15575   1.00
H2       0.92377    0.44745    0.14229   1.00
H2       0.90404    0.54385    0.11030   1.00
H2       0.91539    0.38042    0.22992   1.00
H2       0.82135    0.61383    0.08779   1.00
H2       0.94347    0.37025    0.18803   1.00
H2       0.87046    0.62149    0.07449   1.00
H2       0.94429    0.41739    0.20860   1.00
H2       0.84924    0.57502    0.06851   1.00
C4       0.51975    0.24654    0.25331   1.00
C4       0.47809    0.24501    0.25305   1.00
C3       0.54103    0.26942    0.28075   1.00
C3       0.45496    0.26289    0.28262   1.00
C3       0.54146    0.22458    0.22524   1.00
C3       0.45830    0.22491    0.22230   1.00
C2       0.60405    0.24815    0.25510   1.00
C2       0.39378    0.24358    0.25153   1.00
C3       0.58189    0.27010    0.28180   1.00
C3       0.41409    0.26241    0.28184   1.00
C3       0.58304    0.22589    0.22744   1.00
C3       0.41664    0.22528    0.22246   1.00
H1       0.52763    0.28675    0.30076   1.00
H1       0.46694    0.27661    0.30604   1.00
C5       0.52165    0.20229    0.19587   1.00
C5       0.48002    0.20496    0.19261   1.00
H1       0.59549    0.28707    0.30241   1.00
H1       0.39909    0.27599    0.30395   1.00
H1       0.59948    0.21046    0.20815   1.00
H1       0.40152    0.21154    0.20095   1.00
C6       0.54485    0.17596    0.16903   1.00
C6       0.45881    0.18739    0.15805   1.00
H2       0.56655    0.16022    0.18613   1.00
H2       0.43690    0.20800    0.14775   1.00
H2       0.52714    0.15220    0.15773   1.00
H2       0.47772    0.18495    0.13270   1.00
C6       0.56394    0.19827    0.13395   1.00
C6       0.44058    0.14641    0.16702   1.00
H2       0.57708    0.22539    0.14442   1.00
H2       0.42617    0.14713    0.19547   1.00
C6       0.59541    0.17605    0.10940   1.00
C6       0.41089    0.12942    0.13674   1.00
H2       0.54051    0.20733    0.11432   1.00
H2       0.46454    0.12563    0.17027   1.00
C6       0.63265    0.16755    0.13370   1.00
C6       0.37292    0.15401    0.13494   1.00
C6       0.57926    0.13723    0.09279   1.00
C6       0.42893    0.12679    0.09537   1.00
C6       0.60755    0.20222    0.07445   1.00
C6       0.39946    0.08753    0.14969   1.00
H2       0.64442    0.19432    0.14637   1.00
H2       0.35980    0.15696    0.16383   1.00
H2       0.62670    0.14730    0.15745   1.00
H2       0.37846    0.18321    0.12370   1.00
H2       0.65541    0.15451    0.11564   1.00
H2       0.35137    0.14046    0.11581   1.00
H2       0.60045    0.12336    0.07348   1.00
H2       0.40902    0.11236    0.07511   1.00
H2       0.57275    0.11667    0.11617   1.00
H2       0.43506    0.15575    0.08374   1.00
H2       0.55255    0.14229    0.07623   1.00
H2       0.45615    0.11030    0.09596   1.00
H2       0.61958    0.22992    0.08461   1.00
H2       0.38617    0.08779    0.17865   1.00
H2       0.62975    0.18803    0.05653   1.00
H2       0.37851    0.07449    0.12954   1.00
H2       0.58261    0.20860    0.05571   1.00
H2       0.42498    0.06851    0.15076   1.00
C4       0.98025    0.24654    0.24669   1.00
C4       1.02191    0.24501    0.24695   1.00
C3       0.95897    0.26942    0.21925   1.00
C3       1.04504    0.26289    0.21738   1.00
C3       0.95854    0.22458    0.27476   1.00
C3       1.04170    0.22491    0.27770   1.00
C2       0.89595    0.24815    0.24490   1.00
C2       1.10622    0.24358    0.24847   1.00
C3       0.91811    0.27010    0.21820   1.00
C3       1.08591    0.26241    0.21816   1.00
C3       0.91696    0.22589    0.27256   1.00
C3       1.08336    0.22528    0.27754   1.00
H1       0.97237    0.28675    0.19924   1.00
H1       1.03306    0.27661    0.19396   1.00
C5       0.97835    0.20229    0.30413   1.00
C5       1.01998    0.20496    0.30739   1.00
H1       0.90451    0.28707    0.19759   1.00
H1       1.10091    0.27599    0.19605   1.00
H1       0.90052    0.21046    0.29185   1.00
H1       1.09848    0.21154    0.29905   1.00
C6       0.95515    0.17596    0.33097   1.00
C6       1.04119    0.18739    0.34195   1.00
H2       0.93345    0.16022    0.31387   1.00
H2       1.06310    0.20800    0.35225   1.00
H2       0.97286    0.15220    0.34227   1.00
H2       1.02228    0.18495    0.36730   1.00
C6       0.93606    0.19827    0.36605   1.00
C6       1.05942    0.14641    0.33298   1.00
H2       0.92292    0.22539    0.35558   1.00
H2       1.07383    0.14713    0.30453   1.00
C6       0.90459    0.17605    0.39060   1.00
C6       1.08911    0.12942    0.36326   1.00
H2       0.95949    0.20733    0.38568   1.00
H2       1.03546    0.12563    0.32973   1.00
C6       0.86735    0.16755    0.36630   1.00
C6       1.12708    0.15401    0.36506   1.00
C6       0.92074    0.13723    0.40721   1.00
C6       1.07107    0.12679    0.40463   1.00
C6       0.89245    0.20222    0.42555   1.00
C6       1.10054    0.08753    0.35031   1.00
H2       0.85558    0.19432    0.35363   1.00
H2       1.14020    0.15696    0.33617   1.00
H2       0.87330    0.14730    0.34255   1.00
H2       1.12154    0.18321    0.37630   1.00
H2       0.84459    0.15451    0.38436   1.00
H2       1.14863    0.14046    0.38419   1.00
H2       0.89955    0.12336    0.42652   1.00
H2       1.09098    0.11236    0.42489   1.00
H2       0.92725    0.11667    0.38383   1.00
H2       1.06494    0.15575    0.41626   1.00
H2       0.94745    0.14229    0.42377   1.00
H2       1.04385    0.11030    0.40404   1.00
H2       0.88042    0.22992    0.41539   1.00
H2       1.11383    0.08779    0.32135   1.00
H2       0.87025    0.18803    0.44347   1.00
H2       1.12149    0.07449    0.37046   1.00
H2       0.91739    0.20860    0.44429   1.00
H2       1.07502    0.06851    0.34924   1.00
C4       0.75331    0.01975    0.24654   1.00
C4       0.75305    -0.02191   0.24501   1.00
C3       0.78075    0.04103    0.26942   1.00
C3       0.78262    -0.04504   0.26289   1.00
C3       0.72524    0.04146    0.22458   1.00
C3       0.72230    -0.04170   0.22491   1.00
C2       0.75510    0.10405    0.24815   1.00
C2       0.75153    -0.10622   0.24358   1.00
C3       0.78180    0.08189    0.27010   1.00
C3       0.78184    -0.08591   0.26241   1.00
C3       0.72744    0.08304    0.22589   1.00
C3       0.72246    -0.08336   0.22528   1.00
H1       0.80076    0.02763    0.28675   1.00
H1       0.80604    -0.03306   0.27661   1.00
C5       0.69587    0.02165    0.20229   1.00
C5       0.69261    -0.01998   0.20496   1.00
H1       0.80241    0.09549    0.28707   1.00
H1       0.80395    -0.10091   0.27599   1.00
H1       0.70815    0.09948    0.21046   1.00
H1       0.70095    -0.09848   0.21154   1.00
C6       0.66903    0.04485    0.17596   1.00
C6       0.65805    -0.04119   0.18739   1.00
H2       0.68613    0.06655    0.16022   1.00
H2       0.64775    -0.06310   0.20800   1.00
H2       0.65773    0.02714    0.15220   1.00
H2       0.63270    -0.02228   0.18495   1.00
C6       0.63395    0.06394    0.19827   1.00
C6       0.66702    -0.05942   0.14641   1.00
H2       0.64442    0.07708    0.22539   1.00
H2       0.69547    -0.07383   0.14713   1.00
C6       0.60940    0.09541    0.17605   1.00
C6       0.63674    -0.08911   0.12942   1.00
H2       0.61432    0.04051    0.20733   1.00
H2       0.67027    -0.03546   0.12563   1.00
C6       0.63370    0.13265    0.16755   1.00
C6       0.63494    -0.12708   0.15401   1.00
C6       0.59279    0.07926    0.13723   1.00
C6       0.59537    -0.07107   0.12679   1.00
C6       0.57445    0.10755    0.20222   1.00
C6       0.64969    -0.10054   0.08753   1.00
H2       0.64637    0.14442    0.19432   1.00
H2       0.66383    -0.14020   0.15696   1.00
H2       0.65745    0.12670    0.14730   1.00
H2       0.62370    -0.12154   0.18321   1.00
H2       0.61564    0.15541    0.15451   1.00
H2       0.61581    -0.14863   0.14046   1.00
H2       0.57348    0.10045    0.12336   1.00
H2       0.57511    -0.09098   0.11236   1.00
H2       0.61617    0.07275    0.11667   1.00
H2       0.58374    -0.06494   0.15575   1.00
H2       0.57623    0.05255    0.14229   1.00
H2       0.59596    -0.04385   0.11030   1.00
H2       0.58461    0.11958    0.22992   1.00
H2       0.67865    -0.11383   0.08779   1.00
H2       0.55653    0.12975    0.18803   1.00
H2       0.62954    -0.12149   0.07449   1.00
H2       0.55571    0.08261    0.20860   1.00
H2       0.65076    -0.07502   0.06851   1.00
C4       0.74654    0.25331    0.01975   1.00
C4       0.74501    0.25305    -0.02191   1.00
C3       0.76942    0.28075    0.04103   1.00
C3       0.76289    0.28262    -0.04504   1.00
C3       0.72458    0.22524    0.04146   1.00
C3       0.72491    0.22230    -0.04170   1.00
C2       0.74815    0.25510    0.10405   1.00
C2       0.74358    0.25153    -0.10622   1.00
C3       0.77010    0.28180    0.08189   1.00
C3       0.76241    0.28184    -0.08591   1.00
C3       0.72589    0.22744    0.08304   1.00
C3       0.72528    0.22246    -0.08336   1.00
H1       0.78675    0.30076    0.02763   1.00
H1       0.77661    0.30604    -0.03306   1.00
C5       0.70229    0.19587    0.02165   1.00
C5       0.70496    0.19261    -0.01998   1.00
H1       0.78707    0.30241    0.09549   1.00
H1       0.77599    0.30395    -0.10091   1.00
H1       0.71046    0.20815    0.09948   1.00
H1       0.71154    0.20095    -0.09848   1.00
C6       0.67596    0.16903    0.04485   1.00
C6       0.68739    0.15805    -0.04119   1.00
H2       0.66022    0.18613    0.06655   1.00
H2       0.70800    0.14775    -0.06310   1.00
H2       0.65220    0.15773    0.02714   1.00
H2       0.68495    0.13270    -0.02228   1.00
C6       0.69827    0.13395    0.06394   1.00
C6       0.64641    0.16702    -0.05942   1.00
H2       0.72539    0.14442    0.07708   1.00
H2       0.64713    0.19547    -0.07383   1.00
C6       0.67605    0.10940    0.09541   1.00
C6       0.62942    0.13674    -0.08911   1.00
H2       0.70733    0.11432    0.04051   1.00
H2       0.62563    0.17027    -0.03546   1.00
C6       0.66755    0.13370    0.13265   1.00
C6       0.65401    0.13494    -0.12708   1.00
C6       0.63723    0.09279    0.07926   1.00
C6       0.62679    0.09537    -0.07107   1.00
C6       0.70222    0.07445    0.10755   1.00
C6       0.58753    0.14969    -0.10054   1.00
H2       0.69432    0.14637    0.14442   1.00
H2       0.65696    0.16383    -0.14020   1.00
H2       0.64730    0.15745    0.12670   1.00
H2       0.68321    0.12370    -0.12154   1.00
H2       0.65451    0.11564    0.15541   1.00
H2       0.64046    0.11581    -0.14863   1.00
H2       0.62336    0.07348    0.10045   1.00
H2       0.61236    0.07511    -0.09098   1.00
H2       0.61667    0.11617    0.07275   1.00
H2       0.65575    0.08374    -0.06494   1.00
H2       0.64229    0.07623    0.05255   1.00
H2       0.61030    0.09596    -0.04385   1.00
H2       0.72992    0.08461    0.11958   1.00
H2       0.58779    0.17865    -0.11383   1.00
H2       0.68803    0.05653    0.12975   1.00
H2       0.57449    0.12954    -0.12149   1.00
H2       0.70860    0.05571    0.08261   1.00
H2       0.56851    0.15076    -0.07502   1.00
C4       0.99654    0.99669    1.23025   1.00
C4       0.99501    0.99695    1.27191   1.00
C3       1.01942    0.96925    1.20897   1.00
C3       1.01289    0.96738    1.29504   1.00
C3       0.97458    1.02476    1.20854   1.00
C3       0.97491    1.02770    1.29170   1.00
C2       0.99815    0.99490    1.14595   1.00
C2       0.99358    0.99847    1.35622   1.00
C3       1.02010    0.96820    1.16811   1.00
C3       1.01241    0.96816    1.33591   1.00
C3       0.97589    1.02256    1.16696   1.00
C3       0.97528    1.02754    1.33336   1.00
H1       1.03675    0.94924    1.22237   1.00
H1       1.02661    0.94396    1.28306   1.00
C5       0.95229    1.05413    1.22835   1.00
C5       0.95496    1.05739    1.26998   1.00
H1       1.03707    0.94759    1.15451   1.00
H1       1.02599    0.94605    1.35091   1.00
H1       0.96046    1.04185    1.15052   1.00
H1       0.96154    1.04905    1.34848   1.00
C6       0.92596    1.08097    1.20515   1.00
C6       0.93739    1.09195    1.29119   1.00
H2       0.91022    1.06387    1.18345   1.00
H2       0.95800    1.10225    1.31310   1.00
H2       0.90220    1.09227    1.22286   1.00
H2       0.93495    1.11730    1.27228   1.00
C6       0.94827    1.11605    1.18606   1.00
C6       0.89641    1.08298    1.30942   1.00
H2       0.97539    1.10558    1.17292   1.00
H2       0.89713    1.05453    1.32383   1.00
C6       0.92605    1.14060    1.15459   1.00
C6       0.87942    1.11326    1.33911   1.00
H2       0.95733    1.13568    1.20949   1.00
H2       0.87563    1.07973    1.28546   1.00
C6       0.91755    1.11630    1.11735   1.00
C6       0.90401    1.11506    1.37708   1.00
C6       0.88723    1.15721    1.17074   1.00
C6       0.87679    1.15463    1.32107   1.00
C6       0.95222    1.17555    1.14245   1.00
C6       0.83753    1.10031    1.35054   1.00
H2       0.94432    1.10363    1.10558   1.00
H2       0.90696    1.08617    1.39020   1.00
H2       0.89730    1.09255    1.12330   1.00
H2       0.93321    1.12630    1.37154   1.00
H2       0.90451    1.13436    1.09459   1.00
H2       0.89046    1.13419    1.39863   1.00
H2       0.87336    1.17652    1.14955   1.00
H2       0.86236    1.17489    1.34098   1.00
H2       0.86667    1.13383    1.17725   1.00
H2       0.90575    1.16626    1.31494   1.00
H2       0.89229    1.17377    1.19745   1.00
H2       0.86030    1.15404    1.29385   1.00
H2       0.97992    1.16539    1.13042   1.00
H2       0.83779    1.07135    1.36383   1.00
H2       0.93803    1.19347    1.12025   1.00
H2       0.82449    1.12046    1.37149   1.00
H2       0.95860    1.19429    1.16739   1.00
H2       0.81851    1.09924    1.32502   1.00
C4       0.99669    1.23025    0.99654   1.00
C4       0.99695    1.27191    0.99501   1.00
C3       0.96925    1.20897    1.01942   1.00
C3       0.96738    1.29504    1.01289   1.00
C3       1.02476    1.20854    0.97458   1.00
C3       1.02770    1.29170    0.97491   1.00
C2       0.99490    1.14595    0.99815   1.00
C2       0.99847    1.35622    0.99358   1.00
C3       0.96820    1.16811    1.02010   1.00
C3       0.96816    1.33591    1.01241   1.00
C3       1.02256    1.16696    0.97589   1.00
C3       1.02754    1.33336    0.97528   1.00
H1       0.94924    1.22237    1.03675   1.00
H1       0.94396    1.28306    1.02661   1.00
C5       1.05413    1.22835    0.95229   1.00
C5       1.05739    1.26998    0.95496   1.00
H1       0.94759    1.15451    1.03707   1.00
H1       0.94605    1.35091    1.02599   1.00
H1       1.04185    1.15052    0.96046   1.00
H1       1.04905    1.34848    0.96154   1.00
C6       1.08097    1.20515    0.92596   1.00
C6       1.09195    1.29119    0.93739   1.00
H2       1.06387    1.18345    0.91022   1.00
H2       1.10225    1.31310    0.95800   1.00
H2       1.09227    1.22286    0.90220   1.00
H2       1.11730    1.27228    0.93495   1.00
C6       1.11605    1.18606    0.94827   1.00
C6       1.08298    1.30942    0.89641   1.00
H2       1.10558    1.17292    0.97539   1.00
H2       1.05453    1.32383    0.89713   1.00
C6       1.14060    1.15459    0.92605   1.00
C6       1.11326    1.33911    0.87942   1.00
H2       1.13568    1.20949    0.95733   1.00
H2       1.07973    1.28546    0.87563   1.00
C6       1.11630    1.11735    0.91755   1.00
C6       1.11506    1.37708    0.90401   1.00
C6       1.15721    1.17074    0.88723   1.00
C6       1.15463    1.32107    0.87679   1.00
C6       1.17555    1.14245    0.95222   1.00
C6       1.10031    1.35054    0.83753   1.00
H2       1.10363    1.10558    0.94432   1.00
H2       1.08617    1.39020    0.90696   1.00
H2       1.09255    1.12330    0.89730   1.00
H2       1.12630    1.37154    0.93321   1.00
H2       1.13436    1.09459    0.90451   1.00
H2       1.13419    1.39863    0.89046   1.00
H2       1.17652    1.14955    0.87336   1.00
H2       1.17489    1.34098    0.86236   1.00
H2       1.13383    1.17725    0.86667   1.00
H2       1.16626    1.31494    0.90575   1.00
H2       1.17377    1.19745    0.89229   1.00
H2       1.15404    1.29385    0.86030   1.00
H2       1.16539    1.13042    0.97992   1.00
H2       1.07135    1.36383    0.83779   1.00
H2       1.19347    1.12025    0.93803   1.00
H2       1.12046    1.37149    0.82449   1.00
H2       1.19429    1.16739    0.95860   1.00
H2       1.09924    1.32502    0.81851   1.00
C4       0.76975    0.99654    1.00331   1.00
C4       0.72809    0.99501    1.00305   1.00
C3       0.79103    1.01942    1.03075   1.00
C3       0.70496    1.01289    1.03262   1.00
C3       0.79146    0.97458    0.97524   1.00
C3       0.70830    0.97491    0.97230   1.00
C2       0.85405    0.99815    1.00510   1.00
C2       0.64378    0.99358    1.00153   1.00
C3       0.83189    1.02010    1.03180   1.00
C3       0.66409    1.01241    1.03184   1.00
C3       0.83304    0.97589    0.97744   1.00
C3       0.66664    0.97528    0.97246   1.00
H1       0.77763    1.03675    1.05076   1.00
H1       0.71694    1.02661    1.05604   1.00
C5       0.77165    0.95229    0.94587   1.00
C5       0.73002    0.95496    0.94261   1.00
H1       0.84549    1.03707    1.05241   1.00
H1       0.64909    1.02599    1.05395   1.00
H1       0.84948    0.96046    0.95815   1.00
H1       0.65152    0.96154    0.95095   1.00
C6       0.79485    0.92596    0.91903   1.00
C6       0.70881    0.93739    0.90805   1.00
H2       0.81655    0.91022    0.93613   1.00
H2       0.68690    0.95800    0.89775   1.00
H2       0.77714    0.90220    0.90773   1.00
H2       0.72772    0.93495    0.88270   1.00
C6       0.81394    0.94827    0.88395   1.00
C6       0.69058    0.89641    0.91702   1.00
H2       0.82708    0.97539    0.89442   1.00
H2       0.67617    0.89713    0.94547   1.00
C6       0.84541    0.92605    0.85940   1.00
C6       0.66089    0.87942    0.88674   1.00
H2       0.79051    0.95733    0.86432   1.00
H2       0.71454    0.87563    0.92027   1.00
C6       0.88265    0.91755    0.88370   1.00
C6       0.62292    0.90401    0.88494   1.00
C6       0.82926    0.88723    0.84279   1.00
C6       0.67893    0.87679    0.84537   1.00
C6       0.85755    0.95222    0.82445   1.00
C6       0.64946    0.83753    0.89969   1.00
H2       0.89442    0.94432    0.89637   1.00
H2       0.60980    0.90696    0.91383   1.00
H2       0.87670    0.89730    0.90745   1.00
H2       0.62846    0.93321    0.87370   1.00
H2       0.90541    0.90451    0.86564   1.00
H2       0.60137    0.89046    0.86581   1.00
H2       0.85045    0.87336    0.82348   1.00
H2       0.65902    0.86236    0.82511   1.00
H2       0.82275    0.86667    0.86617   1.00
H2       0.68506    0.90575    0.83374   1.00
H2       0.80255    0.89229    0.82623   1.00
H2       0.70615    0.86030    0.84596   1.00
H2       0.86958    0.97992    0.83461   1.00
H2       0.63617    0.83779    0.92865   1.00
H2       0.87975    0.93803    0.80653   1.00
H2       0.62851    0.82449    0.87954   1.00
H2       0.83261    0.95860    0.80571   1.00
H2       0.67498    0.81851    0.90076   1.00
C4       1.23025    0.99654    0.99669   1.00
C4       1.27191    0.99501    0.99695   1.00
C3       1.20897    1.01942    0.96925   1.00
C3       1.29504    1.01289    0.96738   1.00
C3       1.20854    0.97458    1.02476   1.00
C3       1.29170    0.97491    1.02770   1.00
C2       1.14595    0.99815    0.99490   1.00
C2       1.35622    0.99358    0.99847   1.00
C3       1.16811    1.02010    0.96820   1.00
C3       1.33591    1.01241    0.96816   1.00
C3       1.16696    0.97589    1.02256   1.00
C3       1.33336    0.97528    1.02754   1.00
H1       1.22237    1.03675    0.94924   1.00
H1       1.28306    1.02661    0.94396   1.00
C5       1.22835    0.95229    1.05413   1.00
C5       1.26998    0.95496    1.05739   1.00
H1       1.15451    1.03707    0.94759   1.00
H1       1.35091    1.02599    0.94605   1.00
H1       1.15052    0.96046    1.04185   1.00
H1       1.34848    0.96154    1.04905   1.00
C6       1.20515    0.92596    1.08097   1.00
C6       1.29119    0.93739    1.09195   1.00
H2       1.18345    0.91022    1.06387   1.00
H2       1.31310    0.95800    1.10225   1.00
H2       1.22286    0.90220    1.09227   1.00
H2       1.27228    0.93495    1.11730   1.00
C6       1.18606    0.94827    1.11605   1.00
C6       1.30942    0.89641    1.08298   1.00
H2       1.17292    0.97539    1.10558   1.00
H2       1.32383    0.89713    1.05453   1.00
C6       1.15459    0.92605    1.14060   1.00
C6       1.33911    0.87942    1.11326   1.00
H2       1.20949    0.95733    1.13568   1.00
H2       1.28546    0.87563    1.07973   1.00
C6       1.11735    0.91755    1.11630   1.00
C6       1.37708    0.90401    1.11506   1.00
C6       1.17074    0.88723    1.15721   1.00
C6       1.32107    0.87679    1.15463   1.00
C6       1.14245    0.95222    1.17555   1.00
C6       1.35054    0.83753    1.10031   1.00
H2       1.10558    0.94432    1.10363   1.00
H2       1.39020    0.90696    1.08617   1.00
H2       1.12330    0.89730    1.09255   1.00
H2       1.37154    0.93321    1.12630   1.00
H2       1.09459    0.90451    1.13436   1.00
H2       1.39863    0.89046    1.13419   1.00
H2       1.14955    0.87336    1.17652   1.00
H2       1.34098    0.86236    1.17489   1.00
H2       1.17725    0.86667    1.13383   1.00
H2       1.31494    0.90575    1.16626   1.00
H2       1.19745    0.89229    1.17377   1.00
H2       1.29385    0.86030    1.15404   1.00
H2       1.13042    0.97992    1.16539   1.00
H2       1.36383    0.83779    1.07135   1.00
H2       1.12025    0.93803    1.19347   1.00
H2       1.37149    0.82449    1.12046   1.00
H2       1.16739    0.95860    1.19429   1.00
H2       1.32502    0.81851    1.09924   1.00
C4       1.00331    0.76975    0.99654   1.00
C4       1.00305    0.72809    0.99501   1.00
C3       1.03075    0.79103    1.01942   1.00
C3       1.03262    0.70496    1.01289   1.00
C3       0.97524    0.79146    0.97458   1.00
C3       0.97230    0.70830    0.97491   1.00
C2       1.00510    0.85405    0.99815   1.00
C2       1.00153    0.64378    0.99358   1.00
C3       1.03180    0.83189    1.02010   1.00
C3       1.03184    0.66409    1.01241   1.00
C3       0.97744    0.83304    0.97589   1.00
C3       0.97246    0.66664    0.97528   1.00
H1       1.05076    0.77763    1.03675   1.00
H1       1.05604    0.71694    1.02661   1.00
C5       0.94587    0.77165    0.95229   1.00
C5       0.94261    0.73002    0.95496   1.00
H1       1.05241    0.84549    1.03707   1.00
H1       1.05395    0.64909    1.02599   1.00
H1       0.95815    0.84948    0.96046   1.00
H1       0.95095    0.65152    0.96154   1.00
C6       0.91903    0.79485    0.92596   1.00
C6       0.90805    0.70881    0.93739   1.00
H2       0.93613    0.81655    0.91022   1.00
H2       0.89775    0.68690    0.95800   1.00
H2       0.90773    0.77714    0.90220   1.00
H2       0.88270    0.72772    0.93495   1.00
C6       0.88395    0.81394    0.94827   1.00
C6       0.91702    0.69058    0.89641   1.00
H2       0.89442    0.82708    0.97539   1.00
H2       0.94547    0.67617    0.89713   1.00
C6       0.85940    0.84541    0.92605   1.00
C6       0.88674    0.66089    0.87942   1.00
H2       0.86432    0.79051    0.95733   1.00
H2       0.92027    0.71454    0.87563   1.00
C6       0.88370    0.88265    0.91755   1.00
C6       0.88494    0.62292    0.90401   1.00
C6       0.84279    0.82926    0.88723   1.00
C6       0.84537    0.67893    0.87679   1.00
C6       0.82445    0.85755    0.95222   1.00
C6       0.89969    0.64946    0.83753   1.00
H2       0.89637    0.89442    0.94432   1.00
H2       0.91383    0.60980    0.90696   1.00
H2       0.90745    0.87670    0.89730   1.00
H2       0.87370    0.62846    0.93321   1.00
H2       0.86564    0.90541    0.90451   1.00
H2       0.86581    0.60137    0.89046   1.00
H2       0.82348    0.85045    0.87336   1.00
H2       0.82511    0.65902    0.86236   1.00
H2       0.86617    0.82275    0.86667   1.00
H2       0.83374    0.68506    0.90575   1.00
H2       0.82623    0.80255    0.89229   1.00
H2       0.84596    0.70615    0.86030   1.00
H2       0.83461    0.86958    0.97992   1.00
H2       0.92865    0.63617    0.83779   1.00
H2       0.80653    0.87975    0.93803   1.00
H2       0.87954    0.62851    0.82449   1.00
H2       0.80571    0.83261    0.95860   1.00
H2       0.90076    0.67498    0.81851   1.00
C4       0.99654    1.00331    0.76975   1.00
C4       0.99501    1.00305    0.72809   1.00
C3       1.01942    1.03075    0.79103   1.00
C3       1.01289    1.03262    0.70496   1.00
C3       0.97458    0.97524    0.79146   1.00
C3       0.97491    0.97230    0.70830   1.00
C2       0.99815    1.00510    0.85405   1.00
C2       0.99358    1.00153    0.64378   1.00
C3       1.02010    1.03180    0.83189   1.00
C3       1.01241    1.03184    0.66409   1.00
C3       0.97589    0.97744    0.83304   1.00
C3       0.97528    0.97246    0.66664   1.00
H1       1.03675    1.05076    0.77763   1.00
H1       1.02661    1.05604    0.71694   1.00
C5       0.95229    0.94587    0.77165   1.00
C5       0.95496    0.94261    0.73002   1.00
H1       1.03707    1.05241    0.84549   1.00
H1       1.02599    1.05395    0.64909   1.00
H1       0.96046    0.95815    0.84948   1.00
H1       0.96154    0.95095    0.65152   1.00
C6       0.92596    0.91903    0.79485   1.00
C6       0.93739    0.90805    0.70881   1.00
H2       0.91022    0.93613    0.81655   1.00
H2       0.95800    0.89775    0.68690   1.00
H2       0.90220    0.90773    0.77714   1.00
H2       0.93495    0.88270    0.72772   1.00
C6       0.94827    0.88395    0.81394   1.00
C6       0.89641    0.91702    0.69058   1.00
H2       0.97539    0.89442    0.82708   1.00
H2       0.89713    0.94547    0.67617   1.00
C6       0.92605    0.85940    0.84541   1.00
C6       0.87942    0.88674    0.66089   1.00
H2       0.95733    0.86432    0.79051   1.00
H2       0.87563    0.92027    0.71454   1.00
C6       0.91755    0.88370    0.88265   1.00
C6       0.90401    0.88494    0.62292   1.00
C6       0.88723    0.84279    0.82926   1.00
C6       0.87679    0.84537    0.67893   1.00
C6       0.95222    0.82445    0.85755   1.00
C6       0.83753    0.89969    0.64946   1.00
H2       0.94432    0.89637    0.89442   1.00
H2       0.90696    0.91383    0.60980   1.00
H2       0.89730    0.90745    0.87670   1.00
H2       0.93321    0.87370    0.62846   1.00
H2       0.90451    0.86564    0.90541   1.00
H2       0.89046    0.86581    0.60137   1.00
H2       0.87336    0.82348    0.85045   1.00
H2       0.86236    0.82511    0.65902   1.00
H2       0.86667    0.86617    0.82275   1.00
H2       0.90575    0.83374    0.68506   1.00
H2       0.89229    0.82623    0.80255   1.00
H2       0.86030    0.84596    0.70615   1.00
H2       0.97992    0.83461    0.86958   1.00
H2       0.83779    0.92865    0.63617   1.00
H2       0.93803    0.80653    0.87975   1.00
H2       0.82449    0.87954    0.62851   1.00
H2       0.95860    0.80571    0.83261   1.00
H2       0.81851    0.90076    0.67498   1.00
C4       0.49654    0.49669    1.23025   1.00
C4       0.49501    0.49695    1.27191   1.00
C3       0.51942    0.46925    1.20897   1.00
C3       0.51289    0.46738    1.29504   1.00
C3       0.47458    0.52476    1.20854   1.00
C3       0.47491    0.52770    1.29170   1.00
C2       0.49815    0.49490    1.14595   1.00
C2       0.49358    0.49847    1.35622   1.00
C3       0.52010    0.46820    1.16811   1.00
C3       0.51241    0.46816    1.33591   1.00
C3       0.47589    0.52256    1.16696   1.00
C3       0.47528    0.52754    1.33336   1.00
H1       0.53675    0.44924    1.22237   1.00
H1       0.52661    0.44396    1.28306   1.00
C5       0.45229    0.55413    1.22835   1.00
C5       0.45496    0.55739    1.26998   1.00
H1       0.53707    0.44759    1.15451   1.00
H1       0.52599    0.44605    1.35091   1.00
H1       0.46046    0.54185    1.15052   1.00
H1       0.46154    0.54905    1.34848   1.00
C6       0.42596    0.58097    1.20515   1.00
C6       0.43739    0.59195    1.29119   1.00
H2       0.41022    0.56387    1.18345   1.00
H2       0.45800    0.60225    1.31310   1.00
H2       0.40220    0.59227    1.22286   1.00
H2       0.43495    0.61730    1.27228   1.00
C6       0.44827    0.61605    1.18606   1.00
C6       0.39641    0.58298    1.30942   1.00
H2       0.47539    0.60558    1.17292   1.00
H2       0.39713    0.55453    1.32383   1.00
C6       0.42605    0.64060    1.15459   1.00
C6       0.37942    0.61326    1.33911   1.00
H2       0.45733    0.63568    1.20949   1.00
H2       0.37563    0.57973    1.28546   1.00
C6       0.41755    0.61630    1.11735   1.00
C6       0.40401    0.61506    1.37708   1.00
C6       0.38723    0.65721    1.17074   1.00
C6       0.37679    0.65463    1.32107   1.00
C6       0.45222    0.67555    1.14245   1.00
C6       0.33753    0.60031    1.35054   1.00
H2       0.44432    0.60363    1.10558   1.00
H2       0.40696    0.58617    1.39020   1.00
H2       0.39730    0.59255    1.12330   1.00
H2       0.43321    0.62630    1.37154   1.00
H2       0.40451    0.63436    1.09459   1.00
H2       0.39046    0.63419    1.39863   1.00
H2       0.37336    0.67652    1.14955   1.00
H2       0.36236    0.67489    1.34098   1.00
H2       0.36667    0.63383    1.17725   1.00
H2       0.40575    0.66626    1.31494   1.00
H2       0.39229    0.67377    1.19745   1.00
H2       0.36030    0.65404    1.29385   1.00
H2       0.47992    0.66539    1.13042   1.00
H2       0.33779    0.57135    1.36383   1.00
H2       0.43803    0.69347    1.12025   1.00
H2       0.32449    0.62046    1.37149   1.00
H2       0.45860    0.69429    1.16739   1.00
H2       0.31851    0.59924    1.32502   1.00
C4       0.49669    0.73025    0.99654   1.00
C4       0.49695    0.77191    0.99501   1.00
C3       0.46925    0.70897    1.01942   1.00
C3       0.46738    0.79504    1.01289   1.00
C3       0.52476    0.70854    0.97458   1.00
C3       0.52770    0.79170    0.97491   1.00
C2       0.49490    0.64595    0.99815   1.00
C2       0.49847    0.85622    0.99358   1.00
C3       0.46820    0.66811    1.02010   1.00
C3       0.46816    0.83591    1.01241   1.00
C3       0.52256    0.66696    0.97589   1.00
C3       0.52754    0.83336    0.97528   1.00
H1       0.44924    0.72237    1.03675   1.00
H1       0.44396    0.78306    1.02661   1.00
C5       0.55413    0.72835    0.95229   1.00
C5       0.55739    0.76998    0.95496   1.00
H1       0.44759    0.65451    1.03707   1.00
H1       0.44605    0.85091    1.02599   1.00
H1       0.54185    0.65052    0.96046   1.00
H1       0.54905    0.84848    0.96154   1.00
C6       0.58097    0.70515    0.92596   1.00
C6       0.59195    0.79119    0.93739   1.00
H2       0.56387    0.68345    0.91022   1.00
H2       0.60225    0.81310    0.95800   1.00
H2       0.59227    0.72286    0.90220   1.00
H2       0.61730    0.77228    0.93495   1.00
C6       0.61605    0.68606    0.94827   1.00
C6       0.58298    0.80942    0.89641   1.00
H2       0.60558    0.67292    0.97539   1.00
H2       0.55453    0.82383    0.89713   1.00
C6       0.64060    0.65459    0.92605   1.00
C6       0.61326    0.83911    0.87942   1.00
H2       0.63568    0.70949    0.95733   1.00
H2       0.57973    0.78546    0.87563   1.00
C6       0.61630    0.61735    0.91755   1.00
C6       0.61506    0.87708    0.90401   1.00
C6       0.65721    0.67074    0.88723   1.00
C6       0.65463    0.82107    0.87679   1.00
C6       0.67555    0.64245    0.95222   1.00
C6       0.60031    0.85054    0.83753   1.00
H2       0.60363    0.60558    0.94432   1.00
H2       0.58617    0.89020    0.90696   1.00
H2       0.59255    0.62330    0.89730   1.00
H2       0.62630    0.87154    0.93321   1.00
H2       0.63436    0.59459    0.90451   1.00
H2       0.63419    0.89863    0.89046   1.00
H2       0.67652    0.64955    0.87336   1.00
H2       0.67489    0.84098    0.86236   1.00
H2       0.63383    0.67725    0.86667   1.00
H2       0.66626    0.81494    0.90575   1.00
H2       0.67377    0.69745    0.89229   1.00
H2       0.65404    0.79385    0.86030   1.00
H2       0.66539    0.63042    0.97992   1.00
H2       0.57135    0.86383    0.83779   1.00
H2       0.69347    0.62025    0.93803   1.00
H2       0.62046    0.87149    0.82449   1.00
H2       0.69429    0.66739    0.95860   1.00
H2       0.59924    0.82502    0.81851   1.00
C4       0.26975    0.49654    1.00331   1.00
C4       0.22809    0.49501    1.00305   1.00
C3       0.29103    0.51942    1.03075   1.00
C3       0.20496    0.51289    1.03262   1.00
C3       0.29146    0.47458    0.97524   1.00
C3       0.20830    0.47491    0.97230   1.00
C2       0.35405    0.49815    1.00510   1.00
C2       0.14378    0.49358    1.00153   1.00
C3       0.33189    0.52010    1.03180   1.00
C3       0.16409    0.51241    1.03184   1.00
C3       0.33304    0.47589    0.97744   1.00
C3       0.16664    0.47528    0.97246   1.00
H1       0.27763    0.53675    1.05076   1.00
H1       0.21694    0.52661    1.05604   1.00
C5       0.27165    0.45229    0.94587   1.00
C5       0.23002    0.45496    0.94261   1.00
H1       0.34549    0.53707    1.05241   1.00
H1       0.14909    0.52599    1.05395   1.00
H1       0.34948    0.46046    0.95815   1.00
H1       0.15152    0.46154    0.95095   1.00
C6       0.29485    0.42596    0.91903   1.00
C6       0.20881    0.43739    0.90805   1.00
H2       0.31655    0.41022    0.93613   1.00
H2       0.18690    0.45800    0.89775   1.00
H2       0.27714    0.40220    0.90773   1.00
H2       0.22772    0.43495    0.88270   1.00
C6       0.31394    0.44827    0.88395   1.00
C6       0.19058    0.39641    0.91702   1.00
H2       0.32708    0.47539    0.89442   1.00
H2       0.17617    0.39713    0.94547   1.00
C6       0.34541    0.42605    0.85940   1.00
C6       0.16089    0.37942    0.88674   1.00
H2       0.29051    0.45733    0.86432   1.00
H2       0.21454    0.37563    0.92027   1.00
C6       0.38265    0.41755    0.88370   1.00
C6       0.12292    0.40401    0.88494   1.00
C6       0.32926    0.38723    0.84279   1.00
C6       0.17893    0.37679    0.84537   1.00
C6       0.35755    0.45222    0.82445   1.00
C6       0.14946    0.33753    0.89969   1.00
H2       0.39442    0.44432    0.89637   1.00
H2       0.10980    0.40696    0.91383   1.00
H2       0.37670    0.39730    0.90745   1.00
H2       0.12846    0.43321    0.87370   1.00
H2       0.40541    0.40451    0.86564   1.00
H2       0.10137    0.39046    0.86581   1.00
H2       0.35045    0.37336    0.82348   1.00
H2       0.15902    0.36236    0.82511   1.00
H2       0.32275    0.36667    0.86617   1.00
H2       0.18506    0.40575    0.83374   1.00
H2       0.30255    0.39229    0.82623   1.00
H2       0.20615    0.36030    0.84596   1.00
H2       0.36958    0.47992    0.83461   1.00
H2       0.13617    0.33779    0.92865   1.00
H2       0.37975    0.43803    0.80653   1.00
H2       0.12851    0.32449    0.87954   1.00
H2       0.33261    0.45860    0.80571   1.00
H2       0.17498    0.31851    0.90076   1.00
C4       0.73025    0.49654    0.99669   1.00
C4       0.77191    0.49501    0.99695   1.00
C3       0.70897    0.51942    0.96925   1.00
C3       0.79504    0.51289    0.96738   1.00
C3       0.70854    0.47458    1.02476   1.00
C3       0.79170    0.47491    1.02770   1.00
C2       0.64595    0.49815    0.99490   1.00
C2       0.85622    0.49358    0.99847   1.00
C3       0.66811    0.52010    0.96820   1.00
C3       0.83591    0.51241    0.96816   1.00
C3       0.66696    0.47589    1.02256   1.00
C3       0.83336    0.47528    1.02754   1.00
H1       0.72237    0.53675    0.94924   1.00
H1       0.78306    0.52661    0.94396   1.00
C5       0.72835    0.45229    1.05413   1.00
C5       0.76998    0.45496    1.05739   1.00
H1       0.65451    0.53707    0.94759   1.00
H1       0.85091    0.52599    0.94605   1.00
H1       0.65052    0.46046    1.04185   1.00
H1       0.84848    0.46154    1.04905   1.00
C6       0.70515    0.42596    1.08097   1.00
C6       0.79119    0.43739    1.09195   1.00
H2       0.68345    0.41022    1.06387   1.00
H2       0.81310    0.45800    1.10225   1.00
H2       0.72286    0.40220    1.09227   1.00
H2       0.77228    0.43495    1.11730   1.00
C6       0.68606    0.44827    1.11605   1.00
C6       0.80942    0.39641    1.08298   1.00
H2       0.67292    0.47539    1.10558   1.00
H2       0.82383    0.39713    1.05453   1.00
C6       0.65459    0.42605    1.14060   1.00
C6       0.83911    0.37942    1.11326   1.00
H2       0.70949    0.45733    1.13568   1.00
H2       0.78546    0.37563    1.07973   1.00
C6       0.61735    0.41755    1.11630   1.00
C6       0.87708    0.40401    1.11506   1.00
C6       0.67074    0.38723    1.15721   1.00
C6       0.82107    0.37679    1.15463   1.00
C6       0.64245    0.45222    1.17555   1.00
C6       0.85054    0.33753    1.10031   1.00
H2       0.60558    0.44432    1.10363   1.00
H2       0.89020    0.40696    1.08617   1.00
H2       0.62330    0.39730    1.09255   1.00
H2       0.87154    0.43321    1.12630   1.00
H2       0.59459    0.40451    1.13436   1.00
H2       0.89863    0.39046    1.13419   1.00
H2       0.64955    0.37336    1.17652   1.00
H2       0.84098    0.36236    1.17489   1.00
H2       0.67725    0.36667    1.13383   1.00
H2       0.81494    0.40575    1.16626   1.00
H2       0.69745    0.39229    1.17377   1.00
H2       0.79385    0.36030    1.15404   1.00
H2       0.63042    0.47992    1.16539   1.00
H2       0.86383    0.33779    1.07135   1.00
H2       0.62025    0.43803    1.19347   1.00
H2       0.87149    0.32449    1.12046   1.00
H2       0.66739    0.45860    1.19429   1.00
H2       0.82502    0.31851    1.09924   1.00
C4       0.50331    0.26975    0.99654   1.00
C4       0.50305    0.22809    0.99501   1.00
C3       0.53075    0.29103    1.01942   1.00
C3       0.53262    0.20496    1.01289   1.00
C3       0.47524    0.29146    0.97458   1.00
C3       0.47230    0.20830    0.97491   1.00
C2       0.50510    0.35405    0.99815   1.00
C2       0.50153    0.14378    0.99358   1.00
C3       0.53180    0.33189    1.02010   1.00
C3       0.53184    0.16409    1.01241   1.00
C3       0.47744    0.33304    0.97589   1.00
C3       0.47246    0.16664    0.97528   1.00
H1       0.55076    0.27763    1.03675   1.00
H1       0.55604    0.21694    1.02661   1.00
C5       0.44587    0.27165    0.95229   1.00
C5       0.44261    0.23002    0.95496   1.00
H1       0.55241    0.34549    1.03707   1.00
H1       0.55395    0.14909    1.02599   1.00
H1       0.45815    0.34948    0.96046   1.00
H1       0.45095    0.15152    0.96154   1.00
C6       0.41903    0.29485    0.92596   1.00
C6       0.40805    0.20881    0.93739   1.00
H2       0.43613    0.31655    0.91022   1.00
H2       0.39775    0.18690    0.95800   1.00
H2       0.40773    0.27714    0.90220   1.00
H2       0.38270    0.22772    0.93495   1.00
C6       0.38395    0.31394    0.94827   1.00
C6       0.41702    0.19058    0.89641   1.00
H2       0.39442    0.32708    0.97539   1.00
H2       0.44547    0.17617    0.89713   1.00
C6       0.35940    0.34541    0.92605   1.00
C6       0.38674    0.16089    0.87942   1.00
H2       0.36432    0.29051    0.95733   1.00
H2       0.42027    0.21454    0.87563   1.00
C6       0.38370    0.38265    0.91755   1.00
C6       0.38494    0.12292    0.90401   1.00
C6       0.34279    0.32926    0.88723   1.00
C6       0.34537    0.17893    0.87679   1.00
C6       0.32445    0.35755    0.95222   1.00
C6       0.39969    0.14946    0.83753   1.00
H2       0.39637    0.39442    0.94432   1.00
H2       0.41383    0.10980    0.90696   1.00
H2       0.40745    0.37670    0.89730   1.00
H2       0.37370    0.12846    0.93321   1.00
H2       0.36564    0.40541    0.90451   1.00
H2       0.36581    0.10137    0.89046   1.00
H2       0.32348    0.35045    0.87336   1.00
H2       0.32511    0.15902    0.86236   1.00
H2       0.36617    0.32275    0.86667   1.00
H2       0.33374    0.18506    0.90575   1.00
H2       0.32623    0.30255    0.89229   1.00
H2       0.34596    0.20615    0.86030   1.00
H2       0.33461    0.36958    0.97992   1.00
H2       0.42865    0.13617    0.83779   1.00
H2       0.30653    0.37975    0.93803   1.00
H2       0.37954    0.12851    0.82449   1.00
H2       0.30571    0.33261    0.95860   1.00
H2       0.40076    0.17498    0.81851   1.00
C4       0.49654    0.50331    0.76975   1.00
C4       0.49501    0.50305    0.72809   1.00
C3       0.51942    0.53075    0.79103   1.00
C3       0.51289    0.53262    0.70496   1.00
C3       0.47458    0.47524    0.79146   1.00
C3       0.47491    0.47230    0.70830   1.00
C2       0.49815    0.50510    0.85405   1.00
C2       0.49358    0.50153    0.64378   1.00
C3       0.52010    0.53180    0.83189   1.00
C3       0.51241    0.53184    0.66409   1.00
C3       0.47589    0.47744    0.83304   1.00
C3       0.47528    0.47246    0.66664   1.00
H1       0.53675    0.55076    0.77763   1.00
H1       0.52661    0.55604    0.71694   1.00
C5       0.45229    0.44587    0.77165   1.00
C5       0.45496    0.44261    0.73002   1.00
H1       0.53707    0.55241    0.84549   1.00
H1       0.52599    0.55395    0.64909   1.00
H1       0.46046    0.45815    0.84948   1.00
H1       0.46154    0.45095    0.65152   1.00
C6       0.42596    0.41903    0.79485   1.00
C6       0.43739    0.40805    0.70881   1.00
H2       0.41022    0.43613    0.81655   1.00
H2       0.45800    0.39775    0.68690   1.00
H2       0.40220    0.40773    0.77714   1.00
H2       0.43495    0.38270    0.72772   1.00
C6       0.44827    0.38395    0.81394   1.00
C6       0.39641    0.41702    0.69058   1.00
H2       0.47539    0.39442    0.82708   1.00
H2       0.39713    0.44547    0.67617   1.00
C6       0.42605    0.35940    0.84541   1.00
C6       0.37942    0.38674    0.66089   1.00
H2       0.45733    0.36432    0.79051   1.00
H2       0.37563    0.42027    0.71454   1.00
C6       0.41755    0.38370    0.88265   1.00
C6       0.40401    0.38494    0.62292   1.00
C6       0.38723    0.34279    0.82926   1.00
C6       0.37679    0.34537    0.67893   1.00
C6       0.45222    0.32445    0.85755   1.00
C6       0.33753    0.39969    0.64946   1.00
H2       0.44432    0.39637    0.89442   1.00
H2       0.40696    0.41383    0.60980   1.00
H2       0.39730    0.40745    0.87670   1.00
H2       0.43321    0.37370    0.62846   1.00
H2       0.40451    0.36564    0.90541   1.00
H2       0.39046    0.36581    0.60137   1.00
H2       0.37336    0.32348    0.85045   1.00
H2       0.36236    0.32511    0.65902   1.00
H2       0.36667    0.36617    0.82275   1.00
H2       0.40575    0.33374    0.68506   1.00
H2       0.39229    0.32623    0.80255   1.00
H2       0.36030    0.34596    0.70615   1.00
H2       0.47992    0.33461    0.86958   1.00
H2       0.33779    0.42865    0.63617   1.00
H2       0.43803    0.30653    0.87975   1.00
H2       0.32449    0.37954    0.62851   1.00
H2       0.45860    0.30571    0.83261   1.00
H2       0.31851    0.40076    0.67498   1.00
C4       0.49654    0.99669    0.73025   1.00
C4       0.49501    0.99695    0.77191   1.00
C3       0.51942    0.96925    0.70897   1.00
C3       0.51289    0.96738    0.79504   1.00
C3       0.47458    1.02476    0.70854   1.00
C3       0.47491    1.02770    0.79170   1.00
C2       0.49815    0.99490    0.64595   1.00
C2       0.49358    0.99847    0.85622   1.00
C3       0.52010    0.96820    0.66811   1.00
C3       0.51241    0.96816    0.83591   1.00
C3       0.47589    1.02256    0.66696   1.00
C3       0.47528    1.02754    0.83336   1.00
H1       0.53675    0.94924    0.72237   1.00
H1       0.52661    0.94396    0.78306   1.00
C5       0.45229    1.05413    0.72835   1.00
C5       0.45496    1.05739    0.76998   1.00
H1       0.53707    0.94759    0.65451   1.00
H1       0.52599    0.94605    0.85091   1.00
H1       0.46046    1.04185    0.65052   1.00
H1       0.46154    1.04905    0.84848   1.00
C6       0.42596    1.08097    0.70515   1.00
C6       0.43739    1.09195    0.79119   1.00
H2       0.41022    1.06387    0.68345   1.00
H2       0.45800    1.10225    0.81310   1.00
H2       0.40220    1.09227    0.72286   1.00
H2       0.43495    1.11730    0.77228   1.00
C6       0.44827    1.11605    0.68606   1.00
C6       0.39641    1.08298    0.80942   1.00
H2       0.47539    1.10558    0.67292   1.00
H2       0.39713    1.05453    0.82383   1.00
C6       0.42605    1.14060    0.65459   1.00
C6       0.37942    1.11326    0.83911   1.00
H2       0.45733    1.13568    0.70949   1.00
H2       0.37563    1.07973    0.78546   1.00
C6       0.41755    1.11630    0.61735   1.00
C6       0.40401    1.11506    0.87708   1.00
C6       0.38723    1.15721    0.67074   1.00
C6       0.37679    1.15463    0.82107   1.00
C6       0.45222    1.17555    0.64245   1.00
C6       0.33753    1.10031    0.85054   1.00
H2       0.44432    1.10363    0.60558   1.00
H2       0.40696    1.08617    0.89020   1.00
H2       0.39730    1.09255    0.62330   1.00
H2       0.43321    1.12630    0.87154   1.00
H2       0.40451    1.13436    0.59459   1.00
H2       0.39046    1.13419    0.89863   1.00
H2       0.37336    1.17652    0.64955   1.00
H2       0.36236    1.17489    0.84098   1.00
H2       0.36667    1.13383    0.67725   1.00
H2       0.40575    1.16626    0.81494   1.00
H2       0.39229    1.17377    0.69745   1.00
H2       0.36030    1.15404    0.79385   1.00
H2       0.47992    1.16539    0.63042   1.00
H2       0.33779    1.07135    0.86383   1.00
H2       0.43803    1.19347    0.62025   1.00
H2       0.32449    1.12046    0.87149   1.00
H2       0.45860    1.19429    0.66739   1.00
H2       0.31851    1.09924    0.82502   1.00
C4       0.49669    1.23025    0.49654   1.00
C4       0.49695    1.27191    0.49501   1.00
C3       0.46925    1.20897    0.51942   1.00
C3       0.46738    1.29504    0.51289   1.00
C3       0.52476    1.20854    0.47458   1.00
C3       0.52770    1.29170    0.47491   1.00
C2       0.49490    1.14595    0.49815   1.00
C2       0.49847    1.35622    0.49358   1.00
C3       0.46820    1.16811    0.52010   1.00
C3       0.46816    1.33591    0.51241   1.00
C3       0.52256    1.16696    0.47589   1.00
C3       0.52754    1.33336    0.47528   1.00
H1       0.44924    1.22237    0.53675   1.00
H1       0.44396    1.28306    0.52661   1.00
C5       0.55413    1.22835    0.45229   1.00
C5       0.55739    1.26998    0.45496   1.00
H1       0.44759    1.15451    0.53707   1.00
H1       0.44605    1.35091    0.52599   1.00
H1       0.54185    1.15052    0.46046   1.00
H1       0.54905    1.34848    0.46154   1.00
C6       0.58097    1.20515    0.42596   1.00
C6       0.59195    1.29119    0.43739   1.00
H2       0.56387    1.18345    0.41022   1.00
H2       0.60225    1.31310    0.45800   1.00
H2       0.59227    1.22286    0.40220   1.00
H2       0.61730    1.27228    0.43495   1.00
C6       0.61605    1.18606    0.44827   1.00
C6       0.58298    1.30942    0.39641   1.00
H2       0.60558    1.17292    0.47539   1.00
H2       0.55453    1.32383    0.39713   1.00
C6       0.64060    1.15459    0.42605   1.00
C6       0.61326    1.33911    0.37942   1.00
H2       0.63568    1.20949    0.45733   1.00
H2       0.57973    1.28546    0.37563   1.00
C6       0.61630    1.11735    0.41755   1.00
C6       0.61506    1.37708    0.40401   1.00
C6       0.65721    1.17074    0.38723   1.00
C6       0.65463    1.32107    0.37679   1.00
C6       0.67555    1.14245    0.45222   1.00
C6       0.60031    1.35054    0.33753   1.00
H2       0.60363    1.10558    0.44432   1.00
H2       0.58617    1.39020    0.40696   1.00
H2       0.59255    1.12330    0.39730   1.00
H2       0.62630    1.37154    0.43321   1.00
H2       0.63436    1.09459    0.40451   1.00
H2       0.63419    1.39863    0.39046   1.00
H2       0.67652    1.14955    0.37336   1.00
H2       0.67489    1.34098    0.36236   1.00
H2       0.63383    1.17725    0.36667   1.00
H2       0.66626    1.31494    0.40575   1.00
H2       0.67377    1.19745    0.39229   1.00
H2       0.65404    1.29385    0.36030   1.00
H2       0.66539    1.13042    0.47992   1.00
H2       0.57135    1.36383    0.33779   1.00
H2       0.69347    1.12025    0.43803   1.00
H2       0.62046    1.37149    0.32449   1.00
H2       0.69429    1.16739    0.45860   1.00
H2       0.59924    1.32502    0.31851   1.00
C4       0.26975    0.99654    0.50331   1.00
C4       0.22809    0.99501    0.50305   1.00
C3       0.29103    1.01942    0.53075   1.00
C3       0.20496    1.01289    0.53262   1.00
C3       0.29146    0.97458    0.47524   1.00
C3       0.20830    0.97491    0.47230   1.00
C2       0.35405    0.99815    0.50510   1.00
C2       0.14378    0.99358    0.50153   1.00
C3       0.33189    1.02010    0.53180   1.00
C3       0.16409    1.01241    0.53184   1.00
C3       0.33304    0.97589    0.47744   1.00
C3       0.16664    0.97528    0.47246   1.00
H1       0.27763    1.03675    0.55076   1.00
H1       0.21694    1.02661    0.55604   1.00
C5       0.27165    0.95229    0.44587   1.00
C5       0.23002    0.95496    0.44261   1.00
H1       0.34549    1.03707    0.55241   1.00
H1       0.14909    1.02599    0.55395   1.00
H1       0.34948    0.96046    0.45815   1.00
H1       0.15152    0.96154    0.45095   1.00
C6       0.29485    0.92596    0.41903   1.00
C6       0.20881    0.93739    0.40805   1.00
H2       0.31655    0.91022    0.43613   1.00
H2       0.18690    0.95800    0.39775   1.00
H2       0.27714    0.90220    0.40773   1.00
H2       0.22772    0.93495    0.38270   1.00
C6       0.31394    0.94827    0.38395   1.00
C6       0.19058    0.89641    0.41702   1.00
H2       0.32708    0.97539    0.39442   1.00
H2       0.17617    0.89713    0.44547   1.00
C6       0.34541    0.92605    0.35940   1.00
C6       0.16089    0.87942    0.38674   1.00
H2       0.29051    0.95733    0.36432   1.00
H2       0.21454    0.87563    0.42027   1.00
C6       0.38265    0.91755    0.38370   1.00
C6       0.12292    0.90401    0.38494   1.00
C6       0.32926    0.88723    0.34279   1.00
C6       0.17893    0.87679    0.34537   1.00
C6       0.35755    0.95222    0.32445   1.00
C6       0.14946    0.83753    0.39969   1.00
H2       0.39442    0.94432    0.39637   1.00
H2       0.10980    0.90696    0.41383   1.00
H2       0.37670    0.89730    0.40745   1.00
H2       0.12846    0.93321    0.37370   1.00
H2       0.40541    0.90451    0.36564   1.00
H2       0.10137    0.89046    0.36581   1.00
H2       0.35045    0.87336    0.32348   1.00
H2       0.15902    0.86236    0.32511   1.00
H2       0.32275    0.86667    0.36617   1.00
H2       0.18506    0.90575    0.33374   1.00
H2       0.30255    0.89229    0.32623   1.00
H2       0.20615    0.86030    0.34596   1.00
H2       0.36958    0.97992    0.33461   1.00
H2       0.13617    0.83779    0.42865   1.00
H2       0.37975    0.93803    0.30653   1.00
H2       0.12851    0.82449    0.37954   1.00
H2       0.33261    0.95860    0.30571   1.00
H2       0.17498    0.81851    0.40076   1.00
C4       0.73025    0.99654    0.49669   1.00
C4       0.77191    0.99501    0.49695   1.00
C3       0.70897    1.01942    0.46925   1.00
C3       0.79504    1.01289    0.46738   1.00
C3       0.70854    0.97458    0.52476   1.00
C3       0.79170    0.97491    0.52770   1.00
C2       0.64595    0.99815    0.49490   1.00
C2       0.85622    0.99358    0.49847   1.00
C3       0.66811    1.02010    0.46820   1.00
C3       0.83591    1.01241    0.46816   1.00
C3       0.66696    0.97589    0.52256   1.00
C3       0.83336    0.97528    0.52754   1.00
H1       0.72237    1.03675    0.44924   1.00
H1       0.78306    1.02661    0.44396   1.00
C5       0.72835    0.95229    0.55413   1.00
C5       0.76998    0.95496    0.55739   1.00
H1       0.65451    1.03707    0.44759   1.00
H1       0.85091    1.02599    0.44605   1.00
H1       0.65052    0.96046    0.54185   1.00
H1       0.84848    0.96154    0.54905   1.00
C6       0.70515    0.92596    0.58097   1.00
C6       0.79119    0.93739    0.59195   1.00
H2       0.68345    0.91022    0.56387   1.00
H2       0.81310    0.95800    0.60225   1.00
H2       0.72286    0.90220    0.59227   1.00
H2       0.77228    0.93495    0.61730   1.00
C6       0.68606    0.94827    0.61605   1.00
C6       0.80942    0.89641    0.58298   1.00
H2       0.67292    0.97539    0.60558   1.00
H2       0.82383    0.89713    0.55453   1.00
C6       0.65459    0.92605    0.64060   1.00
C6       0.83911    0.87942    0.61326   1.00
H2       0.70949    0.95733    0.63568   1.00
H2       0.78546    0.87563    0.57973   1.00
C6       0.61735    0.91755    0.61630   1.00
C6       0.87708    0.90401    0.61506   1.00
C6       0.67074    0.88723    0.65721   1.00
C6       0.82107    0.87679    0.65463   1.00
C6       0.64245    0.95222    0.67555   1.00
C6       0.85054    0.83753    0.60031   1.00
H2       0.60558    0.94432    0.60363   1.00
H2       0.89020    0.90696    0.58617   1.00
H2       0.62330    0.89730    0.59255   1.00
H2       0.87154    0.93321    0.62630   1.00
H2       0.59459    0.90451    0.63436   1.00
H2       0.89863    0.89046    0.63419   1.00
H2       0.64955    0.87336    0.67652   1.00
H2       0.84098    0.86236    0.67489   1.00
H2       0.67725    0.86667    0.63383   1.00
H2       0.81494    0.90575    0.66626   1.00
H2       0.69745    0.89229    0.67377   1.00
H2       0.79385    0.86030    0.65404   1.00
H2       0.63042    0.97992    0.66539   1.00
H2       0.86383    0.83779    0.57135   1.00
H2       0.62025    0.93803    0.69347   1.00
H2       0.87149    0.82449    0.62046   1.00
H2       0.66739    0.95860    0.69429   1.00
H2       0.82502    0.81851    0.59924   1.00
C4       0.50331    0.76975    0.49654   1.00
C4       0.50305    0.72809    0.49501   1.00
C3       0.53075    0.79103    0.51942   1.00
C3       0.53262    0.70496    0.51289   1.00
C3       0.47524    0.79146    0.47458   1.00
C3       0.47230    0.70830    0.47491   1.00
C2       0.50510    0.85405    0.49815   1.00
C2       0.50153    0.64378    0.49358   1.00
C3       0.53180    0.83189    0.52010   1.00
C3       0.53184    0.66409    0.51241   1.00
C3       0.47744    0.83304    0.47589   1.00
C3       0.47246    0.66664    0.47528   1.00
H1       0.55076    0.77763    0.53675   1.00
H1       0.55604    0.71694    0.52661   1.00
C5       0.44587    0.77165    0.45229   1.00
C5       0.44261    0.73002    0.45496   1.00
H1       0.55241    0.84549    0.53707   1.00
H1       0.55395    0.64909    0.52599   1.00
H1       0.45815    0.84948    0.46046   1.00
H1       0.45095    0.65152    0.46154   1.00
C6       0.41903    0.79485    0.42596   1.00
C6       0.40805    0.70881    0.43739   1.00
H2       0.43613    0.81655    0.41022   1.00
H2       0.39775    0.68690    0.45800   1.00
H2       0.40773    0.77714    0.40220   1.00
H2       0.38270    0.72772    0.43495   1.00
C6       0.38395    0.81394    0.44827   1.00
C6       0.41702    0.69058    0.39641   1.00
H2       0.39442    0.82708    0.47539   1.00
H2       0.44547    0.67617    0.39713   1.00
C6       0.35940    0.84541    0.42605   1.00
C6       0.38674    0.66089    0.37942   1.00
H2       0.36432    0.79051    0.45733   1.00
H2       0.42027    0.71454    0.37563   1.00
C6       0.38370    0.88265    0.41755   1.00
C6       0.38494    0.62292    0.40401   1.00
C6       0.34279    0.82926    0.38723   1.00
C6       0.34537    0.67893    0.37679   1.00
C6       0.32445    0.85755    0.45222   1.00
C6       0.39969    0.64946    0.33753   1.00
H2       0.39637    0.89442    0.44432   1.00
H2       0.41383    0.60980    0.40696   1.00
H2       0.40745    0.87670    0.39730   1.00
H2       0.37370    0.62846    0.43321   1.00
H2       0.36564    0.90541    0.40451   1.00
H2       0.36581    0.60137    0.39046   1.00
H2       0.32348    0.85045    0.37336   1.00
H2       0.32511    0.65902    0.36236   1.00
H2       0.36617    0.82275    0.36667   1.00
H2       0.33374    0.68506    0.40575   1.00
H2       0.32623    0.80255    0.39229   1.00
H2       0.34596    0.70615    0.36030   1.00
H2       0.33461    0.86958    0.47992   1.00
H2       0.42865    0.63617    0.33779   1.00
H2       0.30653    0.87975    0.43803   1.00
H2       0.37954    0.62851    0.32449   1.00
H2       0.30571    0.83261    0.45860   1.00
H2       0.40076    0.67498    0.31851   1.00
C4       0.49654    1.00331    0.26975   1.00
C4       0.49501    1.00305    0.22809   1.00
C3       0.51942    1.03075    0.29103   1.00
C3       0.51289    1.03262    0.20496   1.00
C3       0.47458    0.97524    0.29146   1.00
C3       0.47491    0.97230    0.20830   1.00
C2       0.49815    1.00510    0.35405   1.00
C2       0.49358    1.00153    0.14378   1.00
C3       0.52010    1.03180    0.33189   1.00
C3       0.51241    1.03184    0.16409   1.00
C3       0.47589    0.97744    0.33304   1.00
C3       0.47528    0.97246    0.16664   1.00
H1       0.53675    1.05076    0.27763   1.00
H1       0.52661    1.05604    0.21694   1.00
C5       0.45229    0.94587    0.27165   1.00
C5       0.45496    0.94261    0.23002   1.00
H1       0.53707    1.05241    0.34549   1.00
H1       0.52599    1.05395    0.14909   1.00
H1       0.46046    0.95815    0.34948   1.00
H1       0.46154    0.95095    0.15152   1.00
C6       0.42596    0.91903    0.29485   1.00
C6       0.43739    0.90805    0.20881   1.00
H2       0.41022    0.93613    0.31655   1.00
H2       0.45800    0.89775    0.18690   1.00
H2       0.40220    0.90773    0.27714   1.00
H2       0.43495    0.88270    0.22772   1.00
C6       0.44827    0.88395    0.31394   1.00
C6       0.39641    0.91702    0.19058   1.00
H2       0.47539    0.89442    0.32708   1.00
H2       0.39713    0.94547    0.17617   1.00
C6       0.42605    0.85940    0.34541   1.00
C6       0.37942    0.88674    0.16089   1.00
H2       0.45733    0.86432    0.29051   1.00
H2       0.37563    0.92027    0.21454   1.00
C6       0.41755    0.88370    0.38265   1.00
C6       0.40401    0.88494    0.12292   1.00
C6       0.38723    0.84279    0.32926   1.00
C6       0.37679    0.84537    0.17893   1.00
C6       0.45222    0.82445    0.35755   1.00
C6       0.33753    0.89969    0.14946   1.00
H2       0.44432    0.89637    0.39442   1.00
H2       0.40696    0.91383    0.10980   1.00
H2       0.39730    0.90745    0.37670   1.00
H2       0.43321    0.87370    0.12846   1.00
H2       0.40451    0.86564    0.40541   1.00
H2       0.39046    0.86581    0.10137   1.00
H2       0.37336    0.82348    0.35045   1.00
H2       0.36236    0.82511    0.15902   1.00
H2       0.36667    0.86617    0.32275   1.00
H2       0.40575    0.83374    0.18506   1.00
H2       0.39229    0.82623    0.30255   1.00
H2       0.36030    0.84596    0.20615   1.00
H2       0.47992    0.83461    0.36958   1.00
H2       0.33779    0.92865    0.13617   1.00
H2       0.43803    0.80653    0.37975   1.00
H2       0.32449    0.87954    0.12851   1.00
H2       0.45860    0.80571    0.33261   1.00
H2       0.31851    0.90076    0.17498   1.00
C4       0.99654    0.49669    0.73025   1.00
C4       0.99501    0.49695    0.77191   1.00
C3       1.01942    0.46925    0.70897   1.00
C3       1.01289    0.46738    0.79504   1.00
C3       0.97458    0.52476    0.70854   1.00
C3       0.97491    0.52770    0.79170   1.00
C2       0.99815    0.49490    0.64595   1.00
C2       0.99358    0.49847    0.85622   1.00
C3       1.02010    0.46820    0.66811   1.00
C3       1.01241    0.46816    0.83591   1.00
C3       0.97589    0.52256    0.66696   1.00
C3       0.97528    0.52754    0.83336   1.00
H1       1.03675    0.44924    0.72237   1.00
H1       1.02661    0.44396    0.78306   1.00
C5       0.95229    0.55413    0.72835   1.00
C5       0.95496    0.55739    0.76998   1.00
H1       1.03707    0.44759    0.65451   1.00
H1       1.02599    0.44605    0.85091   1.00
H1       0.96046    0.54185    0.65052   1.00
H1       0.96154    0.54905    0.84848   1.00
C6       0.92596    0.58097    0.70515   1.00
C6       0.93739    0.59195    0.79119   1.00
H2       0.91022    0.56387    0.68345   1.00
H2       0.95800    0.60225    0.81310   1.00
H2       0.90220    0.59227    0.72286   1.00
H2       0.93495    0.61730    0.77228   1.00
C6       0.94827    0.61605    0.68606   1.00
C6       0.89641    0.58298    0.80942   1.00
H2       0.97539    0.60558    0.67292   1.00
H2       0.89713    0.55453    0.82383   1.00
C6       0.92605    0.64060    0.65459   1.00
C6       0.87942    0.61326    0.83911   1.00
H2       0.95733    0.63568    0.70949   1.00
H2       0.87563    0.57973    0.78546   1.00
C6       0.91755    0.61630    0.61735   1.00
C6       0.90401    0.61506    0.87708   1.00
C6       0.88723    0.65721    0.67074   1.00
C6       0.87679    0.65463    0.82107   1.00
C6       0.95222    0.67555    0.64245   1.00
C6       0.83753    0.60031    0.85054   1.00
H2       0.94432    0.60363    0.60558   1.00
H2       0.90696    0.58617    0.89020   1.00
H2       0.89730    0.59255    0.62330   1.00
H2       0.93321    0.62630    0.87154   1.00
H2       0.90451    0.63436    0.59459   1.00
H2       0.89046    0.63419    0.89863   1.00
H2       0.87336    0.67652    0.64955   1.00
H2       0.86236    0.67489    0.84098   1.00
H2       0.86667    0.63383    0.67725   1.00
H2       0.90575    0.66626    0.81494   1.00
H2       0.89229    0.67377    0.69745   1.00
H2       0.86030    0.65404    0.79385   1.00
H2       0.97992    0.66539    0.63042   1.00
H2       0.83779    0.57135    0.86383   1.00
H2       0.93803    0.69347    0.62025   1.00
H2       0.82449    0.62046    0.87149   1.00
H2       0.95860    0.69429    0.66739   1.00
H2       0.81851    0.59924    0.82502   1.00
C4       0.99669    0.73025    0.49654   1.00
C4       0.99695    0.77191    0.49501   1.00
C3       0.96925    0.70897    0.51942   1.00
C3       0.96738    0.79504    0.51289   1.00
C3       1.02476    0.70854    0.47458   1.00
C3       1.02770    0.79170    0.47491   1.00
C2       0.99490    0.64595    0.49815   1.00
C2       0.99847    0.85622    0.49358   1.00
C3       0.96820    0.66811    0.52010   1.00
C3       0.96816    0.83591    0.51241   1.00
C3       1.02256    0.66696    0.47589   1.00
C3       1.02754    0.83336    0.47528   1.00
H1       0.94924    0.72237    0.53675   1.00
H1       0.94396    0.78306    0.52661   1.00
C5       1.05413    0.72835    0.45229   1.00
C5       1.05739    0.76998    0.45496   1.00
H1       0.94759    0.65451    0.53707   1.00
H1       0.94605    0.85091    0.52599   1.00
H1       1.04185    0.65052    0.46046   1.00
H1       1.04905    0.84848    0.46154   1.00
C6       1.08097    0.70515    0.42596   1.00
C6       1.09195    0.79119    0.43739   1.00
H2       1.06387    0.68345    0.41022   1.00
H2       1.10225    0.81310    0.45800   1.00
H2       1.09227    0.72286    0.40220   1.00
H2       1.11730    0.77228    0.43495   1.00
C6       1.11605    0.68606    0.44827   1.00
C6       1.08298    0.80942    0.39641   1.00
H2       1.10558    0.67292    0.47539   1.00
H2       1.05453    0.82383    0.39713   1.00
C6       1.14060    0.65459    0.42605   1.00
C6       1.11326    0.83911    0.37942   1.00
H2       1.13568    0.70949    0.45733   1.00
H2       1.07973    0.78546    0.37563   1.00
C6       1.11630    0.61735    0.41755   1.00
C6       1.11506    0.87708    0.40401   1.00
C6       1.15721    0.67074    0.38723   1.00
C6       1.15463    0.82107    0.37679   1.00
C6       1.17555    0.64245    0.45222   1.00
C6       1.10031    0.85054    0.33753   1.00
H2       1.10363    0.60558    0.44432   1.00
H2       1.08617    0.89020    0.40696   1.00
H2       1.09255    0.62330    0.39730   1.00
H2       1.12630    0.87154    0.43321   1.00
H2       1.13436    0.59459    0.40451   1.00
H2       1.13419    0.89863    0.39046   1.00
H2       1.17652    0.64955    0.37336   1.00
H2       1.17489    0.84098    0.36236   1.00
H2       1.13383    0.67725    0.36667   1.00
H2       1.16626    0.81494    0.40575   1.00
H2       1.17377    0.69745    0.39229   1.00
H2       1.15404    0.79385    0.36030   1.00
H2       1.16539    0.63042    0.47992   1.00
H2       1.07135    0.86383    0.33779   1.00
H2       1.19347    0.62025    0.43803   1.00
H2       1.12046    0.87149    0.32449   1.00
H2       1.19429    0.66739    0.45860   1.00
H2       1.09924    0.82502    0.31851   1.00
C4       0.76975    0.49654    0.50331   1.00
C4       0.72809    0.49501    0.50305   1.00
C3       0.79103    0.51942    0.53075   1.00
C3       0.70496    0.51289    0.53262   1.00
C3       0.79146    0.47458    0.47524   1.00
C3       0.70830    0.47491    0.47230   1.00
C2       0.85405    0.49815    0.50510   1.00
C2       0.64378    0.49358    0.50153   1.00
C3       0.83189    0.52010    0.53180   1.00
C3       0.66409    0.51241    0.53184   1.00
C3       0.83304    0.47589    0.47744   1.00
C3       0.66664    0.47528    0.47246   1.00
H1       0.77763    0.53675    0.55076   1.00
H1       0.71694    0.52661    0.55604   1.00
C5       0.77165    0.45229    0.44587   1.00
C5       0.73002    0.45496    0.44261   1.00
H1       0.84549    0.53707    0.55241   1.00
H1       0.64909    0.52599    0.55395   1.00
H1       0.84948    0.46046    0.45815   1.00
H1       0.65152    0.46154    0.45095   1.00
C6       0.79485    0.42596    0.41903   1.00
C6       0.70881    0.43739    0.40805   1.00
H2       0.81655    0.41022    0.43613   1.00
H2       0.68690    0.45800    0.39775   1.00
H2       0.77714    0.40220    0.40773   1.00
H2       0.72772    0.43495    0.38270   1.00
C6       0.81394    0.44827    0.38395   1.00
C6       0.69058    0.39641    0.41702   1.00
H2       0.82708    0.47539    0.39442   1.00
H2       0.67617    0.39713    0.44547   1.00
C6       0.84541    0.42605    0.35940   1.00
C6       0.66089    0.37942    0.38674   1.00
H2       0.79051    0.45733    0.36432   1.00
H2       0.71454    0.37563    0.42027   1.00
C6       0.88265    0.41755    0.38370   1.00
C6       0.62292    0.40401    0.38494   1.00
C6       0.82926    0.38723    0.34279   1.00
C6       0.67893    0.37679    0.34537   1.00
C6       0.85755    0.45222    0.32445   1.00
C6       0.64946    0.33753    0.39969   1.00
H2       0.89442    0.44432    0.39637   1.00
H2       0.60980    0.40696    0.41383   1.00
H2       0.87670    0.39730    0.40745   1.00
H2       0.62846    0.43321    0.37370   1.00
H2       0.90541    0.40451    0.36564   1.00
H2       0.60137    0.39046    0.36581   1.00
H2       0.85045    0.37336    0.32348   1.00
H2       0.65902    0.36236    0.32511   1.00
H2       0.82275    0.36667    0.36617   1.00
H2       0.68506    0.40575    0.33374   1.00
H2       0.80255    0.39229    0.32623   1.00
H2       0.70615    0.36030    0.34596   1.00
H2       0.86958    0.47992    0.33461   1.00
H2       0.63617    0.33779    0.42865   1.00
H2       0.87975    0.43803    0.30653   1.00
H2       0.62851    0.32449    0.37954   1.00
H2       0.83261    0.45860    0.30571   1.00
H2       0.67498    0.31851    0.40076   1.00
C4       1.23025    0.49654    0.49669   1.00
C4       1.27191    0.49501    0.49695   1.00
C3       1.20897    0.51942    0.46925   1.00
C3       1.29504    0.51289    0.46738   1.00
C3       1.20854    0.47458    0.52476   1.00
C3       1.29170    0.47491    0.52770   1.00
C2       1.14595    0.49815    0.49490   1.00
C2       1.35622    0.49358    0.49847   1.00
C3       1.16811    0.52010    0.46820   1.00
C3       1.33591    0.51241    0.46816   1.00
C3       1.16696    0.47589    0.52256   1.00
C3       1.33336    0.47528    0.52754   1.00
H1       1.22237    0.53675    0.44924   1.00
H1       1.28306    0.52661    0.44396   1.00
C5       1.22835    0.45229    0.55413   1.00
C5       1.26998    0.45496    0.55739   1.00
H1       1.15451    0.53707    0.44759   1.00
H1       1.35091    0.52599    0.44605   1.00
H1       1.15052    0.46046    0.54185   1.00
H1       1.34848    0.46154    0.54905   1.00
C6       1.20515    0.42596    0.58097   1.00
C6       1.29119    0.43739    0.59195   1.00
H2       1.18345    0.41022    0.56387   1.00
H2       1.31310    0.45800    0.60225   1.00
H2       1.22286    0.40220    0.59227   1.00
H2       1.27228    0.43495    0.61730   1.00
C6       1.18606    0.44827    0.61605   1.00
C6       1.30942    0.39641    0.58298   1.00
H2       1.17292    0.47539    0.60558   1.00
H2       1.32383    0.39713    0.55453   1.00
C6       1.15459    0.42605    0.64060   1.00
C6       1.33911    0.37942    0.61326   1.00
H2       1.20949    0.45733    0.63568   1.00
H2       1.28546    0.37563    0.57973   1.00
C6       1.11735    0.41755    0.61630   1.00
C6       1.37708    0.40401    0.61506   1.00
C6       1.17074    0.38723    0.65721   1.00
C6       1.32107    0.37679    0.65463   1.00
C6       1.14245    0.45222    0.67555   1.00
C6       1.35054    0.33753    0.60031   1.00
H2       1.10558    0.44432    0.60363   1.00
H2       1.39020    0.40696    0.58617   1.00
H2       1.12330    0.39730    0.59255   1.00
H2       1.37154    0.43321    0.62630   1.00
H2       1.09459    0.40451    0.63436   1.00
H2       1.39863    0.39046    0.63419   1.00
H2       1.14955    0.37336    0.67652   1.00
H2       1.34098    0.36236    0.67489   1.00
H2       1.17725    0.36667    0.63383   1.00
H2       1.31494    0.40575    0.66626   1.00
H2       1.19745    0.39229    0.67377   1.00
H2       1.29385    0.36030    0.65404   1.00
H2       1.13042    0.47992    0.66539   1.00
H2       1.36383    0.33779    0.57135   1.00
H2       1.12025    0.43803    0.69347   1.00
H2       1.37149    0.32449    0.62046   1.00
H2       1.16739    0.45860    0.69429   1.00
H2       1.32502    0.31851    0.59924   1.00
C4       1.00331    0.26975    0.49654   1.00
C4       1.00305    0.22809    0.49501   1.00
C3       1.03075    0.29103    0.51942   1.00
C3       1.03262    0.20496    0.51289   1.00
C3       0.97524    0.29146    0.47458   1.00
C3       0.97230    0.20830    0.47491   1.00
C2       1.00510    0.35405    0.49815   1.00
C2       1.00153    0.14378    0.49358   1.00
C3       1.03180    0.33189    0.52010   1.00
C3       1.03184    0.16409    0.51241   1.00
C3       0.97744    0.33304    0.47589   1.00
C3       0.97246    0.16664    0.47528   1.00
H1       1.05076    0.27763    0.53675   1.00
H1       1.05604    0.21694    0.52661   1.00
C5       0.94587    0.27165    0.45229   1.00
C5       0.94261    0.23002    0.45496   1.00
H1       1.05241    0.34549    0.53707   1.00
H1       1.05395    0.14909    0.52599   1.00
H1       0.95815    0.34948    0.46046   1.00
H1       0.95095    0.15152    0.46154   1.00
C6       0.91903    0.29485    0.42596   1.00
C6       0.90805    0.20881    0.43739   1.00
H2       0.93613    0.31655    0.41022   1.00
H2       0.89775    0.18690    0.45800   1.00
H2       0.90773    0.27714    0.40220   1.00
H2       0.88270    0.22772    0.43495   1.00
C6       0.88395    0.31394    0.44827   1.00
C6       0.91702    0.19058    0.39641   1.00
H2       0.89442    0.32708    0.47539   1.00
H2       0.94547    0.17617    0.39713   1.00
C6       0.85940    0.34541    0.42605   1.00
C6       0.88674    0.16089    0.37942   1.00
H2       0.86432    0.29051    0.45733   1.00
H2       0.92027    0.21454    0.37563   1.00
C6       0.88370    0.38265    0.41755   1.00
C6       0.88494    0.12292    0.40401   1.00
C6       0.84279    0.32926    0.38723   1.00
C6       0.84537    0.17893    0.37679   1.00
C6       0.82445    0.35755    0.45222   1.00
C6       0.89969    0.14946    0.33753   1.00
H2       0.89637    0.39442    0.44432   1.00
H2       0.91383    0.10980    0.40696   1.00
H2       0.90745    0.37670    0.39730   1.00
H2       0.87370    0.12846    0.43321   1.00
H2       0.86564    0.40541    0.40451   1.00
H2       0.86581    0.10137    0.39046   1.00
H2       0.82348    0.35045    0.37336   1.00
H2       0.82511    0.15902    0.36236   1.00
H2       0.86617    0.32275    0.36667   1.00
H2       0.83374    0.18506    0.40575   1.00
H2       0.82623    0.30255    0.39229   1.00
H2       0.84596    0.20615    0.36030   1.00
H2       0.83461    0.36958    0.47992   1.00
H2       0.92865    0.13617    0.33779   1.00
H2       0.80653    0.37975    0.43803   1.00
H2       0.87954    0.12851    0.32449   1.00
H2       0.80571    0.33261    0.45860   1.00
H2       0.90076    0.17498    0.31851   1.00
C4       0.99654    0.50331    0.26975   1.00
C4       0.99501    0.50305    0.22809   1.00
C3       1.01942    0.53075    0.29103   1.00
C3       1.01289    0.53262    0.20496   1.00
C3       0.97458    0.47524    0.29146   1.00
C3       0.97491    0.47230    0.20830   1.00
C2       0.99815    0.50510    0.35405   1.00
C2       0.99358    0.50153    0.14378   1.00
C3       1.02010    0.53180    0.33189   1.00
C3       1.01241    0.53184    0.16409   1.00
C3       0.97589    0.47744    0.33304   1.00
C3       0.97528    0.47246    0.16664   1.00
H1       1.03675    0.55076    0.27763   1.00
H1       1.02661    0.55604    0.21694   1.00
C5       0.95229    0.44587    0.27165   1.00
C5       0.95496    0.44261    0.23002   1.00
H1       1.03707    0.55241    0.34549   1.00
H1       1.02599    0.55395    0.14909   1.00
H1       0.96046    0.45815    0.34948   1.00
H1       0.96154    0.45095    0.15152   1.00
C6       0.92596    0.41903    0.29485   1.00
C6       0.93739    0.40805    0.20881   1.00
H2       0.91022    0.43613    0.31655   1.00
H2       0.95800    0.39775    0.18690   1.00
H2       0.90220    0.40773    0.27714   1.00
H2       0.93495    0.38270    0.22772   1.00
C6       0.94827    0.38395    0.31394   1.00
C6       0.89641    0.41702    0.19058   1.00
H2       0.97539    0.39442    0.32708   1.00
H2       0.89713    0.44547    0.17617   1.00
C6       0.92605    0.35940    0.34541   1.00
C6       0.87942    0.38674    0.16089   1.00
H2       0.95733    0.36432    0.29051   1.00
H2       0.87563    0.42027    0.21454   1.00
C6       0.91755    0.38370    0.38265   1.00
C6       0.90401    0.38494    0.12292   1.00
C6       0.88723    0.34279    0.32926   1.00
C6       0.87679    0.34537    0.17893   1.00
C6       0.95222    0.32445    0.35755   1.00
C6       0.83753    0.39969    0.14946   1.00
H2       0.94432    0.39637    0.39442   1.00
H2       0.90696    0.41383    0.10980   1.00
H2       0.89730    0.40745    0.37670   1.00
H2       0.93321    0.37370    0.12846   1.00
H2       0.90451    0.36564    0.40541   1.00
H2       0.89046    0.36581    0.10137   1.00
H2       0.87336    0.32348    0.35045   1.00
H2       0.86236    0.32511    0.15902   1.00
H2       0.86667    0.36617    0.32275   1.00
H2       0.90575    0.33374    0.18506   1.00
H2       0.89229    0.32623    0.30255   1.00
H2       0.86030    0.34596    0.20615   1.00
H2       0.97992    0.33461    0.36958   1.00
H2       0.83779    0.42865    0.13617   1.00
H2       0.93803    0.30653    0.37975   1.00
H2       0.82449    0.37954    0.12851   1.00
H2       0.95860    0.30571    0.33261   1.00
H2       0.81851    0.40076    0.17498   1.00
