data_IRMOF10_SG202_interpen_Ligand9lp_label_y.

_audit_creation_method             'generated by an auxiliary program of Tobunporous'

_symmetry_space_group_name_H-M     'P 1'
_symmetry_Int_Tables_number        1
_symmetry_cell_setting             triclinic

_cell_length_a                    34.2800
_cell_length_b                    34.2800
_cell_length_c                    34.2800
_cell_angle_alpha                 90.0000
_cell_angle_beta                  90.0000
_cell_angle_gamma                 90.0000

loop_
_atom_site_label
_atom_site_fract_x
_atom_site_fract_y
_atom_site_fract_z
_atom_site_occupancy
O1       0.75000    0.75000    0.75000   1.00
Zn1      0.71720    0.78280    0.78280   1.00
Zn1      0.78280    0.71720    0.78280   1.00
Zn1      0.78280    0.78280    0.71720   1.00
Zn1      0.71720    0.71720    0.71720   1.00
O2       0.72650    0.77350    0.83820   1.00
O2       0.72650    0.83820    0.77350   1.00
O2       0.66180    0.77350    0.77350   1.00
O2       0.77350    0.72650    0.83820   1.00
O2       0.83820    0.72650    0.77350   1.00
O2       0.77350    0.66180    0.77350   1.00
O2       0.77350    0.83820    0.72650   1.00
O2       0.83820    0.77350    0.72650   1.00
O2       0.77350    0.77350    0.66180   1.00
O2       0.66180    0.72650    0.72650   1.00
O2       0.72650    0.66180    0.72650   1.00
O2       0.72650    0.72650    0.66180   1.00
C1       0.75000    0.75000    0.85520   1.00
C1       0.75000    0.85520    0.75000   1.00
C1       0.64480    0.75000    0.75000   1.00
C1       0.85520    0.75000    0.75000   1.00
C1       0.75000    0.64480    0.75000   1.00
C1       0.75000    0.75000    0.64480   1.00
O1       0.25000    0.25000    0.75000   1.00
Zn1      0.21720    0.28280    0.78280   1.00
Zn1      0.28280    0.21720    0.78280   1.00
Zn1      0.28280    0.28280    0.71720   1.00
Zn1      0.21720    0.21720    0.71720   1.00
O2       0.22650    0.27350    0.83820   1.00
O2       0.22650    0.33820    0.77350   1.00
O2       0.16180    0.27350    0.77350   1.00
O2       0.27350    0.22650    0.83820   1.00
O2       0.33820    0.22650    0.77350   1.00
O2       0.27350    0.16180    0.77350   1.00
O2       0.27350    0.33820    0.72650   1.00
O2       0.33820    0.27350    0.72650   1.00
O2       0.27350    0.27350    0.66180   1.00
O2       0.16180    0.22650    0.72650   1.00
O2       0.22650    0.16180    0.72650   1.00
O2       0.22650    0.22650    0.66180   1.00
C1       0.25000    0.25000    0.85520   1.00
C1       0.25000    0.35520    0.75000   1.00
C1       0.14480    0.25000    0.75000   1.00
C1       0.35520    0.25000    0.75000   1.00
C1       0.25000    0.14480    0.75000   1.00
C1       0.25000    0.25000    0.64480   1.00
O1       0.25000    0.75000    0.25000   1.00
Zn1      0.21720    0.78280    0.28280   1.00
Zn1      0.28280    0.71720    0.28280   1.00
Zn1      0.28280    0.78280    0.21720   1.00
Zn1      0.21720    0.71720    0.21720   1.00
O2       0.22650    0.77350    0.33820   1.00
O2       0.22650    0.83820    0.27350   1.00
O2       0.16180    0.77350    0.27350   1.00
O2       0.27350    0.72650    0.33820   1.00
O2       0.33820    0.72650    0.27350   1.00
O2       0.27350    0.66180    0.27350   1.00
O2       0.27350    0.83820    0.22650   1.00
O2       0.33820    0.77350    0.22650   1.00
O2       0.27350    0.77350    0.16180   1.00
O2       0.16180    0.72650    0.22650   1.00
O2       0.22650    0.66180    0.22650   1.00
O2       0.22650    0.72650    0.16180   1.00
C1       0.25000    0.75000    0.35520   1.00
C1       0.25000    0.85520    0.25000   1.00
C1       0.14480    0.75000    0.25000   1.00
C1       0.35520    0.75000    0.25000   1.00
C1       0.25000    0.64480    0.25000   1.00
C1       0.25000    0.75000    0.14480   1.00
O1       0.75000    0.25000    0.25000   1.00
Zn1      0.71720    0.28280    0.28280   1.00
Zn1      0.78280    0.21720    0.28280   1.00
Zn1      0.78280    0.28280    0.21720   1.00
Zn1      0.71720    0.21720    0.21720   1.00
O2       0.72650    0.27350    0.33820   1.00
O2       0.72650    0.33820    0.27350   1.00
O2       0.66180    0.27350    0.27350   1.00
O2       0.77350    0.22650    0.33820   1.00
O2       0.83820    0.22650    0.27350   1.00
O2       0.77350    0.16180    0.27350   1.00
O2       0.77350    0.33820    0.22650   1.00
O2       0.83820    0.27350    0.22650   1.00
O2       0.77350    0.27350    0.16180   1.00
O2       0.66180    0.22650    0.22650   1.00
O2       0.72650    0.16180    0.22650   1.00
O2       0.72650    0.22650    0.16180   1.00
C1       0.75000    0.25000    0.35520   1.00
C1       0.75000    0.35520    0.25000   1.00
C1       0.64480    0.25000    0.25000   1.00
C1       0.85520    0.25000    0.25000   1.00
C1       0.75000    0.14480    0.25000   1.00
C1       0.75000    0.25000    0.14480   1.00
O1       0.25000    0.25000    0.25000   1.00
Zn1      0.28280    0.21720    0.21720   1.00
Zn1      0.21720    0.28280    0.21720   1.00
Zn1      0.21720    0.21720    0.28280   1.00
Zn1      0.28280    0.28280    0.28280   1.00
O2       0.27350    0.22650    0.16180   1.00
O2       0.27350    0.16180    0.22650   1.00
O2       0.33820    0.22650    0.22650   1.00
O2       0.22650    0.27350    0.16180   1.00
O2       0.16180    0.27350    0.22650   1.00
O2       0.22650    0.33820    0.22650   1.00
O2       0.22650    0.16180    0.27350   1.00
O2       0.16180    0.22650    0.27350   1.00
O2       0.22650    0.22650    0.33820   1.00
O2       0.33820    0.27350    0.27350   1.00
O2       0.27350    0.33820    0.27350   1.00
O2       0.27350    0.27350    0.33820   1.00
C1       0.25000    0.25000    0.14480   1.00
C1       0.25000    0.14480    0.25000   1.00
C1       0.35520    0.25000    0.25000   1.00
C1       0.14480    0.25000    0.25000   1.00
C1       0.25000    0.35520    0.25000   1.00
C1       0.25000    0.25000    0.35520   1.00
O1       0.75000    0.75000    0.25000   1.00
Zn1      0.78280    0.71720    0.21720   1.00
Zn1      0.71720    0.78280    0.21720   1.00
Zn1      0.71720    0.71720    0.28280   1.00
Zn1      0.78280    0.78280    0.28280   1.00
O2       0.77350    0.72650    0.16180   1.00
O2       0.77350    0.66180    0.22650   1.00
O2       0.83820    0.72650    0.22650   1.00
O2       0.72650    0.77350    0.16180   1.00
O2       0.66180    0.77350    0.22650   1.00
O2       0.72650    0.83820    0.22650   1.00
O2       0.72650    0.66180    0.27350   1.00
O2       0.66180    0.72650    0.27350   1.00
O2       0.72650    0.72650    0.33820   1.00
O2       0.83820    0.77350    0.27350   1.00
O2       0.77350    0.83820    0.27350   1.00
O2       0.77350    0.77350    0.33820   1.00
C1       0.75000    0.75000    0.14480   1.00
C1       0.75000    0.64480    0.25000   1.00
C1       0.85520    0.75000    0.25000   1.00
C1       0.64480    0.75000    0.25000   1.00
C1       0.75000    0.85520    0.25000   1.00
C1       0.75000    0.75000    0.35520   1.00
O1       0.75000    0.25000    0.75000   1.00
Zn1      0.78280    0.21720    0.71720   1.00
Zn1      0.71720    0.28280    0.71720   1.00
Zn1      0.71720    0.21720    0.78280   1.00
Zn1      0.78280    0.28280    0.78280   1.00
O2       0.77350    0.22650    0.66180   1.00
O2       0.77350    0.16180    0.72650   1.00
O2       0.83820    0.22650    0.72650   1.00
O2       0.72650    0.27350    0.66180   1.00
O2       0.66180    0.27350    0.72650   1.00
O2       0.72650    0.33820    0.72650   1.00
O2       0.72650    0.16180    0.77350   1.00
O2       0.66180    0.22650    0.77350   1.00
O2       0.72650    0.22650    0.83820   1.00
O2       0.83820    0.27350    0.77350   1.00
O2       0.77350    0.33820    0.77350   1.00
O2       0.77350    0.27350    0.83820   1.00
C1       0.75000    0.25000    0.64480   1.00
C1       0.75000    0.14480    0.75000   1.00
C1       0.85520    0.25000    0.75000   1.00
C1       0.64480    0.25000    0.75000   1.00
C1       0.75000    0.35520    0.75000   1.00
C1       0.75000    0.25000    0.85520   1.00
O1       0.25000    0.75000    0.75000   1.00
Zn1      0.28280    0.71720    0.71720   1.00
Zn1      0.21720    0.78280    0.71720   1.00
Zn1      0.21720    0.71720    0.78280   1.00
Zn1      0.28280    0.78280    0.78280   1.00
O2       0.27350    0.72650    0.66180   1.00
O2       0.27350    0.66180    0.72650   1.00
O2       0.33820    0.72650    0.72650   1.00
O2       0.22650    0.77350    0.66180   1.00
O2       0.16180    0.77350    0.72650   1.00
O2       0.22650    0.83820    0.72650   1.00
O2       0.22650    0.66180    0.77350   1.00
O2       0.16180    0.72650    0.77350   1.00
O2       0.22650    0.72650    0.83820   1.00
O2       0.33820    0.77350    0.77350   1.00
O2       0.27350    0.83820    0.77350   1.00
O2       0.27350    0.77350    0.83820   1.00
C1       0.25000    0.75000    0.64480   1.00
C1       0.25000    0.64480    0.75000   1.00
C1       0.35520    0.75000    0.75000   1.00
C1       0.14480    0.75000    0.75000   1.00
C1       0.25000    0.85520    0.75000   1.00
C1       0.25000    0.75000    0.85520   1.00
O1       1.00000    1.00000    1.00000   1.00
Zn1      0.96720    1.03280    1.03280   1.00
Zn1      1.03280    0.96720    1.03280   1.00
Zn1      1.03280    1.03280    0.96720   1.00
Zn1      0.96720    0.96720    0.96720   1.00
O2       0.97650    1.02350    1.08820   1.00
O2       0.97650    1.08820    1.02350   1.00
O2       0.91180    1.02350    1.02350   1.00
O2       1.02350    0.97650    1.08820   1.00
O2       1.08820    0.97650    1.02350   1.00
O2       1.02350    0.91180    1.02350   1.00
O2       1.02350    1.08820    0.97650   1.00
O2       1.08820    1.02350    0.97650   1.00
O2       1.02350    1.02350    0.91180   1.00
O2       0.91180    0.97650    0.97650   1.00
O2       0.97650    0.91180    0.97650   1.00
O2       0.97650    0.97650    0.91180   1.00
C1       1.00000    1.00000    1.10520   1.00
C1       1.00000    1.10520    1.00000   1.00
C1       0.89480    1.00000    1.00000   1.00
C1       1.10520    1.00000    1.00000   1.00
C1       1.00000    0.89480    1.00000   1.00
C1       1.00000    1.00000    0.89480   1.00
O1       0.50000    0.50000    1.00000   1.00
Zn1      0.46720    0.53280    1.03280   1.00
Zn1      0.53280    0.46720    1.03280   1.00
Zn1      0.53280    0.53280    0.96720   1.00
Zn1      0.46720    0.46720    0.96720   1.00
O2       0.47650    0.52350    1.08820   1.00
O2       0.47650    0.58820    1.02350   1.00
O2       0.41180    0.52350    1.02350   1.00
O2       0.52350    0.47650    1.08820   1.00
O2       0.58820    0.47650    1.02350   1.00
O2       0.52350    0.41180    1.02350   1.00
O2       0.52350    0.58820    0.97650   1.00
O2       0.58820    0.52350    0.97650   1.00
O2       0.52350    0.52350    0.91180   1.00
O2       0.41180    0.47650    0.97650   1.00
O2       0.47650    0.41180    0.97650   1.00
O2       0.47650    0.47650    0.91180   1.00
C1       0.50000    0.50000    1.10520   1.00
C1       0.50000    0.60520    1.00000   1.00
C1       0.39480    0.50000    1.00000   1.00
C1       0.60520    0.50000    1.00000   1.00
C1       0.50000    0.39480    1.00000   1.00
C1       0.50000    0.50000    0.89480   1.00
O1       0.50000    1.00000    0.50000   1.00
Zn1      0.46720    1.03280    0.53280   1.00
Zn1      0.53280    0.96720    0.53280   1.00
Zn1      0.53280    1.03280    0.46720   1.00
Zn1      0.46720    0.96720    0.46720   1.00
O2       0.47650    1.02350    0.58820   1.00
O2       0.47650    1.08820    0.52350   1.00
O2       0.41180    1.02350    0.52350   1.00
O2       0.52350    0.97650    0.58820   1.00
O2       0.58820    0.97650    0.52350   1.00
O2       0.52350    0.91180    0.52350   1.00
O2       0.52350    1.08820    0.47650   1.00
O2       0.58820    1.02350    0.47650   1.00
O2       0.52350    1.02350    0.41180   1.00
O2       0.41180    0.97650    0.47650   1.00
O2       0.47650    0.91180    0.47650   1.00
O2       0.47650    0.97650    0.41180   1.00
C1       0.50000    1.00000    0.60520   1.00
C1       0.50000    1.10520    0.50000   1.00
C1       0.39480    1.00000    0.50000   1.00
C1       0.60520    1.00000    0.50000   1.00
C1       0.50000    0.89480    0.50000   1.00
C1       0.50000    1.00000    0.39480   1.00
O1       1.00000    0.50000    0.50000   1.00
Zn1      0.96720    0.53280    0.53280   1.00
Zn1      1.03280    0.46720    0.53280   1.00
Zn1      1.03280    0.53280    0.46720   1.00
Zn1      0.96720    0.46720    0.46720   1.00
O2       0.97650    0.52350    0.58820   1.00
O2       0.97650    0.58820    0.52350   1.00
O2       0.91180    0.52350    0.52350   1.00
O2       1.02350    0.47650    0.58820   1.00
O2       1.08820    0.47650    0.52350   1.00
O2       1.02350    0.41180    0.52350   1.00
O2       1.02350    0.58820    0.47650   1.00
O2       1.08820    0.52350    0.47650   1.00
O2       1.02350    0.52350    0.41180   1.00
O2       0.91180    0.47650    0.47650   1.00
O2       0.97650    0.41180    0.47650   1.00
O2       0.97650    0.47650    0.41180   1.00
C1       1.00000    0.50000    0.60520   1.00
C1       1.00000    0.60520    0.50000   1.00
C1       0.89480    0.50000    0.50000   1.00
C1       1.10520    0.50000    0.50000   1.00
C1       1.00000    0.39480    0.50000   1.00
C1       1.00000    0.50000    0.39480   1.00
O1       0.50000    0.50000    0.50000   1.00
Zn1      0.53280    0.46720    0.46720   1.00
Zn1      0.46720    0.53280    0.46720   1.00
Zn1      0.46720    0.46720    0.53280   1.00
Zn1      0.53280    0.53280    0.53280   1.00
O2       0.52350    0.47650    0.41180   1.00
O2       0.52350    0.41180    0.47650   1.00
O2       0.58820    0.47650    0.47650   1.00
O2       0.47650    0.52350    0.41180   1.00
O2       0.41180    0.52350    0.47650   1.00
O2       0.47650    0.58820    0.47650   1.00
O2       0.47650    0.41180    0.52350   1.00
O2       0.41180    0.47650    0.52350   1.00
O2       0.47650    0.47650    0.58820   1.00
O2       0.58820    0.52350    0.52350   1.00
O2       0.52350    0.58820    0.52350   1.00
O2       0.52350    0.52350    0.58820   1.00
C1       0.50000    0.50000    0.39480   1.00
C1       0.50000    0.39480    0.50000   1.00
C1       0.60520    0.50000    0.50000   1.00
C1       0.39480    0.50000    0.50000   1.00
C1       0.50000    0.60520    0.50000   1.00
C1       0.50000    0.50000    0.60520   1.00
O1       1.00000    1.00000    0.50000   1.00
Zn1      1.03280    0.96720    0.46720   1.00
Zn1      0.96720    1.03280    0.46720   1.00
Zn1      0.96720    0.96720    0.53280   1.00
Zn1      1.03280    1.03280    0.53280   1.00
O2       1.02350    0.97650    0.41180   1.00
O2       1.02350    0.91180    0.47650   1.00
O2       1.08820    0.97650    0.47650   1.00
O2       0.97650    1.02350    0.41180   1.00
O2       0.91180    1.02350    0.47650   1.00
O2       0.97650    1.08820    0.47650   1.00
O2       0.97650    0.91180    0.52350   1.00
O2       0.91180    0.97650    0.52350   1.00
O2       0.97650    0.97650    0.58820   1.00
O2       1.08820    1.02350    0.52350   1.00
O2       1.02350    1.08820    0.52350   1.00
O2       1.02350    1.02350    0.58820   1.00
C1       1.00000    1.00000    0.39480   1.00
C1       1.00000    0.89480    0.50000   1.00
C1       1.10520    1.00000    0.50000   1.00
C1       0.89480    1.00000    0.50000   1.00
C1       1.00000    1.10520    0.50000   1.00
C1       1.00000    1.00000    0.60520   1.00
O1       1.00000    0.50000    1.00000   1.00
Zn1      1.03280    0.46720    0.96720   1.00
Zn1      0.96720    0.53280    0.96720   1.00
Zn1      0.96720    0.46720    1.03280   1.00
Zn1      1.03280    0.53280    1.03280   1.00
O2       1.02350    0.47650    0.91180   1.00
O2       1.02350    0.41180    0.97650   1.00
O2       1.08820    0.47650    0.97650   1.00
O2       0.97650    0.52350    0.91180   1.00
O2       0.91180    0.52350    0.97650   1.00
O2       0.97650    0.58820    0.97650   1.00
O2       0.97650    0.41180    1.02350   1.00
O2       0.91180    0.47650    1.02350   1.00
O2       0.97650    0.47650    1.08820   1.00
O2       1.08820    0.52350    1.02350   1.00
O2       1.02350    0.58820    1.02350   1.00
O2       1.02350    0.52350    1.08820   1.00
C1       1.00000    0.50000    0.89480   1.00
C1       1.00000    0.39480    1.00000   1.00
C1       1.10520    0.50000    1.00000   1.00
C1       0.89480    0.50000    1.00000   1.00
C1       1.00000    0.60520    1.00000   1.00
C1       1.00000    0.50000    1.10520   1.00
O1       0.50000    1.00000    1.00000   1.00
Zn1      0.53280    0.96720    0.96720   1.00
Zn1      0.46720    1.03280    0.96720   1.00
Zn1      0.46720    0.96720    1.03280   1.00
Zn1      0.53280    1.03280    1.03280   1.00
O2       0.52350    0.97650    0.91180   1.00
O2       0.52350    0.91180    0.97650   1.00
O2       0.58820    0.97650    0.97650   1.00
O2       0.47650    1.02350    0.91180   1.00
O2       0.41180    1.02350    0.97650   1.00
O2       0.47650    1.08820    0.97650   1.00
O2       0.47650    0.91180    1.02350   1.00
O2       0.41180    0.97650    1.02350   1.00
O2       0.47650    0.97650    1.08820   1.00
O2       0.58820    1.02350    1.02350   1.00
O2       0.52350    1.08820    1.02350   1.00
O2       0.52350    1.02350    1.08820   1.00
C1       0.50000    1.00000    0.89480   1.00
C1       0.50000    0.89480    1.00000   1.00
C1       0.60520    1.00000    1.00000   1.00
C1       0.39480    1.00000    1.00000   1.00
C1       0.50000    1.10520    1.00000   1.00
C1       0.50000    1.00000    1.10520   1.00
C4       0.74993    0.75077    0.97917   1.00
C4       0.75007    0.74923    1.02083   1.00
C3       0.76573    0.78285    0.95846   1.00
C3       0.78215    0.76243    1.04321   1.00
C3       0.73477    0.71975    0.95643   1.00
C3       0.71742    0.73519    1.04187   1.00
C2       0.75123    0.75279    0.89487   1.00
C2       0.74897    0.74746    1.10514   1.00
C3       0.76629    0.78378    0.91715   1.00
C3       0.78156    0.76147    1.08449   1.00
C3       0.73543    0.72083    0.91514   1.00
C3a      0.71670    0.73417    1.08328   1.00
H1       0.77743    0.80758    0.97425   1.00
H1       0.80811    0.77315    1.02875   1.00
H1       0.77856    0.80887    0.90240   1.00
H1       0.80678    0.77168    1.10056   1.00
H1       0.72374    0.69644    0.89882   1.00
C5       0.68091    0.71909    1.10380   1.00
H1       0.69195    0.72504    1.02622   1.00
H1       0.72300    0.69408    0.97059   1.00
H2       0.68493    0.71941    1.13599   1.00
H2       0.65604    0.73878    1.09705   1.00
N1       0.67211    0.67924    1.09125   1.00
C6       0.69506    0.64777    1.09644   1.00
C6       0.63952    0.66722    1.07288   1.00
C6       0.67705    0.61525    1.08102   1.00
C6       0.64173    0.62762    1.06604   1.00
H3       0.72337    0.64834    1.11049   1.00
H3       0.61544    0.68601    1.06484   1.00
H3       0.68839    0.58581    1.08076   1.00
H3       0.61999    0.60975    1.05180   1.00
C4       0.75077    0.97917    0.74993   1.00
C4       0.74923    1.02083    0.75007   1.00
C3       0.78285    0.95846    0.76573   1.00
C3       0.76243    1.04321    0.78215   1.00
C3       0.71975    0.95643    0.73477   1.00
C3       0.73519    1.04187    0.71742   1.00
C2       0.75279    0.89487    0.75123   1.00
C2       0.74746    1.10514    0.74897   1.00
C3       0.78378    0.91715    0.76629   1.00
C3       0.76147    1.08449    0.78156   1.00
C3       0.72083    0.91514    0.73543   1.00
C3a      0.73417    1.08328    0.71670   1.00
H1       0.80758    0.97425    0.77743   1.00
H1       0.77315    1.02875    0.80811   1.00
H1       0.80887    0.90240    0.77856   1.00
H1       0.77168    1.10056    0.80678   1.00
H1       0.69644    0.89882    0.72374   1.00
C5       0.71909    1.10380    0.68091   1.00
H1       0.72504    1.02622    0.69195   1.00
H1       0.69408    0.97059    0.72300   1.00
H2       0.71941    1.13599    0.68493   1.00
H2       0.73878    1.09705    0.65604   1.00
N1       0.67924    1.09125    0.67211   1.00
C6       0.64777    1.09644    0.69506   1.00
C6       0.66722    1.07288    0.63952   1.00
C6       0.61525    1.08102    0.67705   1.00
C6       0.62762    1.06604    0.64173   1.00
H3       0.64834    1.11049    0.72337   1.00
H3       0.68601    1.06484    0.61544   1.00
H3       0.58581    1.08076    0.68839   1.00
H3       0.60975    1.05180    0.61999   1.00
C4       0.52083    0.74993    0.74923   1.00
C4       0.47917    0.75007    0.75077   1.00
C3       0.54154    0.76573    0.71715   1.00
C3       0.45679    0.78215    0.73757   1.00
C3       0.54357    0.73477    0.78025   1.00
C3       0.45813    0.71742    0.76481   1.00
C2       0.60513    0.75123    0.74721   1.00
C2       0.39486    0.74897    0.75254   1.00
C3       0.58285    0.76629    0.71622   1.00
C3       0.41551    0.78156    0.73853   1.00
C3       0.58486    0.73543    0.77917   1.00
C3a      0.41672    0.71670    0.76583   1.00
H1       0.52575    0.77743    0.69242   1.00
H1       0.47125    0.80811    0.72685   1.00
H1       0.59760    0.77856    0.69113   1.00
H1       0.39944    0.80678    0.72832   1.00
H1       0.60118    0.72374    0.80356   1.00
C5       0.39620    0.68091    0.78091   1.00
H1       0.47378    0.69195    0.77496   1.00
H1       0.52941    0.72300    0.80592   1.00
H2       0.36401    0.68493    0.78059   1.00
H2       0.40295    0.65604    0.76122   1.00
N1       0.40875    0.67211    0.82076   1.00
C6       0.40356    0.69506    0.85223   1.00
C6       0.42712    0.63952    0.83278   1.00
C6       0.41898    0.67705    0.88475   1.00
C6       0.43396    0.64173    0.87238   1.00
H3       0.38951    0.72337    0.85166   1.00
H3       0.43516    0.61544    0.81399   1.00
H3       0.41924    0.68839    0.91419   1.00
H3       0.44820    0.61999    0.89025   1.00
C4       0.97917    0.74993    0.75077   1.00
C4       1.02083    0.75007    0.74923   1.00
C3       0.95846    0.76573    0.78285   1.00
C3       1.04321    0.78215    0.76243   1.00
C3       0.95643    0.73477    0.71975   1.00
C3       1.04187    0.71742    0.73519   1.00
C2       0.89487    0.75123    0.75279   1.00
C2       1.10514    0.74897    0.74746   1.00
C3       0.91715    0.76629    0.78378   1.00
C3       1.08449    0.78156    0.76147   1.00
C3       0.91514    0.73543    0.72083   1.00
C3a      1.08328    0.71670    0.73417   1.00
H1       0.97425    0.77743    0.80758   1.00
H1       1.02875    0.80811    0.77315   1.00
H1       0.90240    0.77856    0.80887   1.00
H1       1.10056    0.80678    0.77168   1.00
H1       0.89882    0.72374    0.69644   1.00
C5       1.10380    0.68091    0.71909   1.00
H1       1.02622    0.69195    0.72504   1.00
H1       0.97059    0.72300    0.69408   1.00
H2       1.13599    0.68493    0.71941   1.00
H2       1.09705    0.65604    0.73878   1.00
N1       1.09125    0.67211    0.67924   1.00
C6       1.09644    0.69506    0.64777   1.00
C6       1.07288    0.63952    0.66722   1.00
C6       1.08102    0.67705    0.61525   1.00
C6       1.06604    0.64173    0.62762   1.00
H3       1.11049    0.72337    0.64834   1.00
H3       1.06484    0.61544    0.68601   1.00
H3       1.08076    0.68839    0.58581   1.00
H3       1.05180    0.61999    0.60975   1.00
C4       0.74923    0.52083    0.74993   1.00
C4       0.75077    0.47917    0.75007   1.00
C3       0.71715    0.54154    0.76573   1.00
C3       0.73757    0.45679    0.78215   1.00
C3       0.78025    0.54357    0.73477   1.00
C3       0.76481    0.45813    0.71742   1.00
C2       0.74721    0.60513    0.75123   1.00
C2       0.75254    0.39486    0.74897   1.00
C3       0.71622    0.58285    0.76629   1.00
C3       0.73853    0.41551    0.78156   1.00
C3       0.77917    0.58486    0.73543   1.00
C3a      0.76583    0.41672    0.71670   1.00
H1       0.69242    0.52575    0.77743   1.00
H1       0.72685    0.47125    0.80811   1.00
H1       0.69113    0.59760    0.77856   1.00
H1       0.72832    0.39944    0.80678   1.00
H1       0.80356    0.60118    0.72374   1.00
C5       0.78091    0.39620    0.68091   1.00
H1       0.77496    0.47378    0.69195   1.00
H1       0.80592    0.52941    0.72300   1.00
H2       0.78059    0.36401    0.68493   1.00
H2       0.76122    0.40295    0.65604   1.00
N1       0.82076    0.40875    0.67211   1.00
C6       0.85223    0.40356    0.69506   1.00
C6       0.83278    0.42712    0.63952   1.00
C6       0.88475    0.41898    0.67705   1.00
C6       0.87238    0.43396    0.64173   1.00
H3       0.85166    0.38951    0.72337   1.00
H3       0.81399    0.43516    0.61544   1.00
H3       0.91419    0.41924    0.68839   1.00
H3       0.89025    0.44820    0.61999   1.00
C4       0.74993    0.74923    0.52083   1.00
C4       0.75007    0.75077    0.47917   1.00
C3       0.76573    0.71715    0.54154   1.00
C3       0.78215    0.73757    0.45679   1.00
C3       0.73477    0.78025    0.54357   1.00
C3       0.71742    0.76481    0.45813   1.00
C2       0.75123    0.74721    0.60513   1.00
C2       0.74897    0.75254    0.39486   1.00
C3       0.76629    0.71622    0.58285   1.00
C3       0.78156    0.73853    0.41551   1.00
C3       0.73543    0.77917    0.58486   1.00
C3a      0.71670    0.76583    0.41672   1.00
H1       0.77743    0.69242    0.52575   1.00
H1       0.80811    0.72685    0.47125   1.00
H1       0.77856    0.69113    0.59760   1.00
H1       0.80678    0.72832    0.39944   1.00
H1       0.72374    0.80356    0.60118   1.00
C5       0.68091    0.78091    0.39620   1.00
H1       0.69195    0.77496    0.47378   1.00
H1       0.72300    0.80592    0.52941   1.00
H2       0.68493    0.78059    0.36401   1.00
H2       0.65604    0.76122    0.40295   1.00
N1       0.67211    0.82076    0.40875   1.00
C6       0.69506    0.85223    0.40356   1.00
C6       0.63952    0.83278    0.42712   1.00
C6       0.67705    0.88475    0.41898   1.00
C6       0.64173    0.87238    0.43396   1.00
H3       0.72337    0.85166    0.38951   1.00
H3       0.61544    0.81399    0.43516   1.00
H3       0.68839    0.91419    0.41924   1.00
H3       0.61999    0.89025    0.44820   1.00
C4       0.24993    0.25077    0.97917   1.00
C4       0.25007    0.24923    1.02083   1.00
C3       0.26573    0.28285    0.95846   1.00
C3       0.28215    0.26243    1.04321   1.00
C3       0.23477    0.21975    0.95643   1.00
C3       0.21742    0.23519    1.04187   1.00
C2       0.25123    0.25279    0.89487   1.00
C2       0.24897    0.24746    1.10514   1.00
C3       0.26629    0.28378    0.91715   1.00
C3       0.28156    0.26147    1.08449   1.00
C3       0.23543    0.22083    0.91514   1.00
C3a      0.21670    0.23417    1.08328   1.00
H1       0.27743    0.30758    0.97425   1.00
H1       0.30811    0.27315    1.02875   1.00
H1       0.27856    0.30887    0.90240   1.00
H1       0.30678    0.27168    1.10056   1.00
H1       0.22374    0.19644    0.89882   1.00
C5       0.18091    0.21909    1.10380   1.00
H1       0.19195    0.22504    1.02622   1.00
H1       0.22300    0.19408    0.97059   1.00
H2       0.18493    0.21941    1.13599   1.00
H2       0.15604    0.23878    1.09705   1.00
N1       0.17211    0.17924    1.09125   1.00
C6       0.19506    0.14777    1.09644   1.00
C6       0.13952    0.16722    1.07288   1.00
C6       0.17705    0.11525    1.08102   1.00
C6       0.14173    0.12762    1.06604   1.00
H3       0.22337    0.14834    1.11049   1.00
H3       0.11544    0.18601    1.06484   1.00
H3       0.18839    0.08581    1.08076   1.00
H3       0.11999    0.10975    1.05180   1.00
C4       0.25077    0.47917    0.74993   1.00
C4       0.24923    0.52083    0.75007   1.00
C3       0.28285    0.45846    0.76573   1.00
C3       0.26243    0.54321    0.78215   1.00
C3       0.21975    0.45643    0.73477   1.00
C3       0.23519    0.54187    0.71742   1.00
C2       0.25279    0.39487    0.75123   1.00
C2       0.24746    0.60514    0.74897   1.00
C3       0.28378    0.41715    0.76629   1.00
C3       0.26147    0.58449    0.78156   1.00
C3       0.22083    0.41514    0.73543   1.00
C3a      0.23417    0.58328    0.71670   1.00
H1       0.30758    0.47425    0.77743   1.00
H1       0.27315    0.52875    0.80811   1.00
H1       0.30887    0.40240    0.77856   1.00
H1       0.27168    0.60056    0.80678   1.00
H1       0.19644    0.39882    0.72374   1.00
C5       0.21909    0.60380    0.68091   1.00
H1       0.22504    0.52622    0.69195   1.00
H1       0.19408    0.47059    0.72300   1.00
H2       0.21941    0.63599    0.68493   1.00
H2       0.23878    0.59705    0.65604   1.00
N1       0.17924    0.59125    0.67211   1.00
C6       0.14777    0.59644    0.69506   1.00
C6       0.16722    0.57288    0.63952   1.00
C6       0.11525    0.58102    0.67705   1.00
C6       0.12762    0.56604    0.64173   1.00
H3       0.14834    0.61049    0.72337   1.00
H3       0.18601    0.56484    0.61544   1.00
H3       0.08581    0.58076    0.68839   1.00
H3       0.10975    0.55180    0.61999   1.00
C4       0.02083    0.24993    0.74923   1.00
C4       -0.02083   0.25007    0.75077   1.00
C3       0.04154    0.26573    0.71715   1.00
C3       -0.04321   0.28215    0.73757   1.00
C3       0.04357    0.23477    0.78025   1.00
C3       -0.04187   0.21742    0.76481   1.00
C2       0.10513    0.25123    0.74721   1.00
C2       -0.10514   0.24897    0.75254   1.00
C3       0.08285    0.26629    0.71622   1.00
C3       -0.08449   0.28156    0.73853   1.00
C3       0.08486    0.23543    0.77917   1.00
C3a      -0.08328   0.21670    0.76583   1.00
H1       0.02575    0.27743    0.69242   1.00
H1       -0.02875   0.30811    0.72685   1.00
H1       0.09760    0.27856    0.69113   1.00
H1       -0.10056   0.30678    0.72832   1.00
H1       0.10118    0.22374    0.80356   1.00
C5       -0.10380   0.18091    0.78091   1.00
H1       -0.02622   0.19195    0.77496   1.00
H1       0.02941    0.22300    0.80592   1.00
H2       -0.13599   0.18493    0.78059   1.00
H2       -0.09705   0.15604    0.76122   1.00
N1       -0.09125   0.17211    0.82076   1.00
C6       -0.09644   0.19506    0.85223   1.00
C6       -0.07288   0.13952    0.83278   1.00
C6       -0.08102   0.17705    0.88475   1.00
C6       -0.06604   0.14173    0.87238   1.00
H3       -0.11049   0.22337    0.85166   1.00
H3       -0.06484   0.11544    0.81399   1.00
H3       -0.08076   0.18839    0.91419   1.00
H3       -0.05180   0.11999    0.89025   1.00
C4       0.47917    0.24993    0.75077   1.00
C4       0.52083    0.25007    0.74923   1.00
C3       0.45846    0.26573    0.78285   1.00
C3       0.54321    0.28215    0.76243   1.00
C3       0.45643    0.23477    0.71975   1.00
C3       0.54187    0.21742    0.73519   1.00
C2       0.39487    0.25123    0.75279   1.00
C2       0.60514    0.24897    0.74746   1.00
C3       0.41715    0.26629    0.78378   1.00
C3       0.58449    0.28156    0.76147   1.00
C3       0.41514    0.23543    0.72083   1.00
C3a      0.58328    0.21670    0.73417   1.00
H1       0.47425    0.27743    0.80758   1.00
H1       0.52875    0.30811    0.77315   1.00
H1       0.40240    0.27856    0.80887   1.00
H1       0.60056    0.30678    0.77168   1.00
H1       0.39882    0.22374    0.69644   1.00
C5       0.60380    0.18091    0.71909   1.00
H1       0.52622    0.19195    0.72504   1.00
H1       0.47059    0.22300    0.69408   1.00
H2       0.63599    0.18493    0.71941   1.00
H2       0.59705    0.15604    0.73878   1.00
N1       0.59125    0.17211    0.67924   1.00
C6       0.59644    0.19506    0.64777   1.00
C6       0.57288    0.13952    0.66722   1.00
C6       0.58102    0.17705    0.61525   1.00
C6       0.56604    0.14173    0.62762   1.00
H3       0.61049    0.22337    0.64834   1.00
H3       0.56484    0.11544    0.68601   1.00
H3       0.58076    0.18839    0.58581   1.00
H3       0.55180    0.11999    0.60975   1.00
C4       0.24923    0.02083    0.74993   1.00
C4       0.25077    -0.02083   0.75007   1.00
C3       0.21715    0.04154    0.76573   1.00
C3       0.23757    -0.04321   0.78215   1.00
C3       0.28025    0.04357    0.73477   1.00
C3       0.26481    -0.04187   0.71742   1.00
C2       0.24721    0.10513    0.75123   1.00
C2       0.25254    -0.10514   0.74897   1.00
C3       0.21622    0.08285    0.76629   1.00
C3       0.23853    -0.08449   0.78156   1.00
C3       0.27917    0.08486    0.73543   1.00
C3a      0.26583    -0.08328   0.71670   1.00
H1       0.19242    0.02575    0.77743   1.00
H1       0.22685    -0.02875   0.80811   1.00
H1       0.19113    0.09760    0.77856   1.00
H1       0.22832    -0.10056   0.80678   1.00
H1       0.30356    0.10118    0.72374   1.00
C5       0.28091    -0.10380   0.68091   1.00
H1       0.27496    -0.02622   0.69195   1.00
H1       0.30592    0.02941    0.72300   1.00
H2       0.28059    -0.13599   0.68493   1.00
H2       0.26122    -0.09705   0.65604   1.00
N1       0.32076    -0.09125   0.67211   1.00
C6       0.35223    -0.09644   0.69506   1.00
C6       0.33278    -0.07288   0.63952   1.00
C6       0.38475    -0.08102   0.67705   1.00
C6       0.37238    -0.06604   0.64173   1.00
H3       0.35166    -0.11049   0.72337   1.00
H3       0.31399    -0.06484   0.61544   1.00
H3       0.41419    -0.08076   0.68839   1.00
H3       0.39025    -0.05180   0.61999   1.00
C4       0.24993    0.24923    0.52083   1.00
C4       0.25007    0.25077    0.47917   1.00
C3       0.26573    0.21715    0.54154   1.00
C3       0.28215    0.23757    0.45679   1.00
C3       0.23477    0.28025    0.54357   1.00
C3       0.21742    0.26481    0.45813   1.00
C2       0.25123    0.24721    0.60513   1.00
C2       0.24897    0.25254    0.39486   1.00
C3       0.26629    0.21622    0.58285   1.00
C3       0.28156    0.23853    0.41551   1.00
C3       0.23543    0.27917    0.58486   1.00
C3a      0.21670    0.26583    0.41672   1.00
H1       0.27743    0.19242    0.52575   1.00
H1       0.30811    0.22685    0.47125   1.00
H1       0.27856    0.19113    0.59760   1.00
H1       0.30678    0.22832    0.39944   1.00
H1       0.22374    0.30356    0.60118   1.00
C5       0.18091    0.28091    0.39620   1.00
H1       0.19195    0.27496    0.47378   1.00
H1       0.22300    0.30592    0.52941   1.00
H2       0.18493    0.28059    0.36401   1.00
H2       0.15604    0.26122    0.40295   1.00
N1       0.17211    0.32076    0.40875   1.00
C6       0.19506    0.35223    0.40356   1.00
C6       0.13952    0.33278    0.42712   1.00
C6       0.17705    0.38475    0.41898   1.00
C6       0.14173    0.37238    0.43396   1.00
H3       0.22337    0.35166    0.38951   1.00
H3       0.11544    0.31399    0.43516   1.00
H3       0.18839    0.41419    0.41924   1.00
H3       0.11999    0.39025    0.44820   1.00
C4       0.24993    0.75077    0.47917   1.00
C4       0.25007    0.74923    0.52083   1.00
C3       0.26573    0.78285    0.45846   1.00
C3       0.28215    0.76243    0.54321   1.00
C3       0.23477    0.71975    0.45643   1.00
C3       0.21742    0.73519    0.54187   1.00
C2       0.25123    0.75279    0.39487   1.00
C2       0.24897    0.74746    0.60514   1.00
C3       0.26629    0.78378    0.41715   1.00
C3       0.28156    0.76147    0.58449   1.00
C3       0.23543    0.72083    0.41514   1.00
C3a      0.21670    0.73417    0.58328   1.00
H1       0.27743    0.80758    0.47425   1.00
H1       0.30811    0.77315    0.52875   1.00
H1       0.27856    0.80887    0.40240   1.00
H1       0.30678    0.77168    0.60056   1.00
H1       0.22374    0.69644    0.39882   1.00
C5       0.18091    0.71909    0.60380   1.00
H1       0.19195    0.72504    0.52622   1.00
H1       0.22300    0.69408    0.47059   1.00
H2       0.18493    0.71941    0.63599   1.00
H2       0.15604    0.73878    0.59705   1.00
N1       0.17211    0.67924    0.59125   1.00
C6       0.19506    0.64777    0.59644   1.00
C6       0.13952    0.66722    0.57288   1.00
C6       0.17705    0.61525    0.58102   1.00
C6       0.14173    0.62762    0.56604   1.00
H3       0.22337    0.64834    0.61049   1.00
H3       0.11544    0.68601    0.56484   1.00
H3       0.18839    0.58581    0.58076   1.00
H3       0.11999    0.60975    0.55180   1.00
C4       0.25077    0.97917    0.24993   1.00
C4       0.24923    1.02083    0.25007   1.00
C3       0.28285    0.95846    0.26573   1.00
C3       0.26243    1.04321    0.28215   1.00
C3       0.21975    0.95643    0.23477   1.00
C3       0.23519    1.04187    0.21742   1.00
C2       0.25279    0.89487    0.25123   1.00
C2       0.24746    1.10514    0.24897   1.00
C3       0.28378    0.91715    0.26629   1.00
C3       0.26147    1.08449    0.28156   1.00
C3       0.22083    0.91514    0.23543   1.00
C3a      0.23417    1.08328    0.21670   1.00
H1       0.30758    0.97425    0.27743   1.00
H1       0.27315    1.02875    0.30811   1.00
H1       0.30887    0.90240    0.27856   1.00
H1       0.27168    1.10056    0.30678   1.00
H1       0.19644    0.89882    0.22374   1.00
C5       0.21909    1.10380    0.18091   1.00
H1       0.22504    1.02622    0.19195   1.00
H1       0.19408    0.97059    0.22300   1.00
H2       0.21941    1.13599    0.18493   1.00
H2       0.23878    1.09705    0.15604   1.00
N1       0.17924    1.09125    0.17211   1.00
C6       0.14777    1.09644    0.19506   1.00
C6       0.16722    1.07288    0.13952   1.00
C6       0.11525    1.08102    0.17705   1.00
C6       0.12762    1.06604    0.14173   1.00
H3       0.14834    1.11049    0.22337   1.00
H3       0.18601    1.06484    0.11544   1.00
H3       0.08581    1.08076    0.18839   1.00
H3       0.10975    1.05180    0.11999   1.00
C4       0.02083    0.74993    0.24923   1.00
C4       -0.02083   0.75007    0.25077   1.00
C3       0.04154    0.76573    0.21715   1.00
C3       -0.04321   0.78215    0.23757   1.00
C3       0.04357    0.73477    0.28025   1.00
C3       -0.04187   0.71742    0.26481   1.00
C2       0.10513    0.75123    0.24721   1.00
C2       -0.10514   0.74897    0.25254   1.00
C3       0.08285    0.76629    0.21622   1.00
C3       -0.08449   0.78156    0.23853   1.00
C3       0.08486    0.73543    0.27917   1.00
C3a      -0.08328   0.71670    0.26583   1.00
H1       0.02575    0.77743    0.19242   1.00
H1       -0.02875   0.80811    0.22685   1.00
H1       0.09760    0.77856    0.19113   1.00
H1       -0.10056   0.80678    0.22832   1.00
H1       0.10118    0.72374    0.30356   1.00
C5       -0.10380   0.68091    0.28091   1.00
H1       -0.02622   0.69195    0.27496   1.00
H1       0.02941    0.72300    0.30592   1.00
H2       -0.13599   0.68493    0.28059   1.00
H2       -0.09705   0.65604    0.26122   1.00
N1       -0.09125   0.67211    0.32076   1.00
C6       -0.09644   0.69506    0.35223   1.00
C6       -0.07288   0.63952    0.33278   1.00
C6       -0.08102   0.67705    0.38475   1.00
C6       -0.06604   0.64173    0.37238   1.00
H3       -0.11049   0.72337    0.35166   1.00
H3       -0.06484   0.61544    0.31399   1.00
H3       -0.08076   0.68839    0.41419   1.00
H3       -0.05180   0.61999    0.39025   1.00
C4       0.47917    0.74993    0.25077   1.00
C4       0.52083    0.75007    0.24923   1.00
C3       0.45846    0.76573    0.28285   1.00
C3       0.54321    0.78215    0.26243   1.00
C3       0.45643    0.73477    0.21975   1.00
C3       0.54187    0.71742    0.23519   1.00
C2       0.39487    0.75123    0.25279   1.00
C2       0.60514    0.74897    0.24746   1.00
C3       0.41715    0.76629    0.28378   1.00
C3       0.58449    0.78156    0.26147   1.00
C3       0.41514    0.73543    0.22083   1.00
C3a      0.58328    0.71670    0.23417   1.00
H1       0.47425    0.77743    0.30758   1.00
H1       0.52875    0.80811    0.27315   1.00
H1       0.40240    0.77856    0.30887   1.00
H1       0.60056    0.80678    0.27168   1.00
H1       0.39882    0.72374    0.19644   1.00
C5       0.60380    0.68091    0.21909   1.00
H1       0.52622    0.69195    0.22504   1.00
H1       0.47059    0.72300    0.19408   1.00
H2       0.63599    0.68493    0.21941   1.00
H2       0.59705    0.65604    0.23878   1.00
N1       0.59125    0.67211    0.17924   1.00
C6       0.59644    0.69506    0.14777   1.00
C6       0.57288    0.63952    0.16722   1.00
C6       0.58102    0.67705    0.11525   1.00
C6       0.56604    0.64173    0.12762   1.00
H3       0.61049    0.72337    0.14834   1.00
H3       0.56484    0.61544    0.18601   1.00
H3       0.58076    0.68839    0.08581   1.00
H3       0.55180    0.61999    0.10975   1.00
C4       0.24923    0.52083    0.24993   1.00
C4       0.25077    0.47917    0.25007   1.00
C3       0.21715    0.54154    0.26573   1.00
C3       0.23757    0.45679    0.28215   1.00
C3       0.28025    0.54357    0.23477   1.00
C3       0.26481    0.45813    0.21742   1.00
C2       0.24721    0.60513    0.25123   1.00
C2       0.25254    0.39486    0.24897   1.00
C3       0.21622    0.58285    0.26629   1.00
C3       0.23853    0.41551    0.28156   1.00
C3       0.27917    0.58486    0.23543   1.00
C3a      0.26583    0.41672    0.21670   1.00
H1       0.19242    0.52575    0.27743   1.00
H1       0.22685    0.47125    0.30811   1.00
H1       0.19113    0.59760    0.27856   1.00
H1       0.22832    0.39944    0.30678   1.00
H1       0.30356    0.60118    0.22374   1.00
C5       0.28091    0.39620    0.18091   1.00
H1       0.27496    0.47378    0.19195   1.00
H1       0.30592    0.52941    0.22300   1.00
H2       0.28059    0.36401    0.18493   1.00
H2       0.26122    0.40295    0.15604   1.00
N1       0.32076    0.40875    0.17211   1.00
C6       0.35223    0.40356    0.19506   1.00
C6       0.33278    0.42712    0.13952   1.00
C6       0.38475    0.41898    0.17705   1.00
C6       0.37238    0.43396    0.14173   1.00
H3       0.35166    0.38951    0.22337   1.00
H3       0.31399    0.43516    0.11544   1.00
H3       0.41419    0.41924    0.18839   1.00
H3       0.39025    0.44820    0.11999   1.00
C4       0.24993    0.74923    0.02083   1.00
C4       0.25007    0.75077    -0.02083   1.00
C3       0.26573    0.71715    0.04154   1.00
C3       0.28215    0.73757    -0.04321   1.00
C3       0.23477    0.78025    0.04357   1.00
C3       0.21742    0.76481    -0.04187   1.00
C2       0.25123    0.74721    0.10513   1.00
C2       0.24897    0.75254    -0.10514   1.00
C3       0.26629    0.71622    0.08285   1.00
C3       0.28156    0.73853    -0.08449   1.00
C3       0.23543    0.77917    0.08486   1.00
C3a      0.21670    0.76583    -0.08328   1.00
H1       0.27743    0.69242    0.02575   1.00
H1       0.30811    0.72685    -0.02875   1.00
H1       0.27856    0.69113    0.09760   1.00
H1       0.30678    0.72832    -0.10056   1.00
H1       0.22374    0.80356    0.10118   1.00
C5       0.18091    0.78091    -0.10380   1.00
H1       0.19195    0.77496    -0.02622   1.00
H1       0.22300    0.80592    0.02941   1.00
H2       0.18493    0.78059    -0.13599   1.00
H2       0.15604    0.76122    -0.09705   1.00
N1       0.17211    0.82076    -0.09125   1.00
C6       0.19506    0.85223    -0.09644   1.00
C6       0.13952    0.83278    -0.07288   1.00
C6       0.17705    0.88475    -0.08102   1.00
C6       0.14173    0.87238    -0.06604   1.00
H3       0.22337    0.85166    -0.11049   1.00
H3       0.11544    0.81399    -0.06484   1.00
H3       0.18839    0.91419    -0.08076   1.00
H3       0.11999    0.89025    -0.05180   1.00
C4       0.74993    0.25077    0.47917   1.00
C4       0.75007    0.24923    0.52083   1.00
C3       0.76573    0.28285    0.45846   1.00
C3       0.78215    0.26243    0.54321   1.00
C3       0.73477    0.21975    0.45643   1.00
C3       0.71742    0.23519    0.54187   1.00
C2       0.75123    0.25279    0.39487   1.00
C2       0.74897    0.24746    0.60514   1.00
C3       0.76629    0.28378    0.41715   1.00
C3       0.78156    0.26147    0.58449   1.00
C3       0.73543    0.22083    0.41514   1.00
C3a      0.71670    0.23417    0.58328   1.00
H1       0.77743    0.30758    0.47425   1.00
H1       0.80811    0.27315    0.52875   1.00
H1       0.77856    0.30887    0.40240   1.00
H1       0.80678    0.27168    0.60056   1.00
H1       0.72374    0.19644    0.39882   1.00
C5       0.68091    0.21909    0.60380   1.00
H1       0.69195    0.22504    0.52622   1.00
H1       0.72300    0.19408    0.47059   1.00
H2       0.68493    0.21941    0.63599   1.00
H2       0.65604    0.23878    0.59705   1.00
N1       0.67211    0.17924    0.59125   1.00
C6       0.69506    0.14777    0.59644   1.00
C6       0.63952    0.16722    0.57288   1.00
C6       0.67705    0.11525    0.58102   1.00
C6       0.64173    0.12762    0.56604   1.00
H3       0.72337    0.14834    0.61049   1.00
H3       0.61544    0.18601    0.56484   1.00
H3       0.68839    0.08581    0.58076   1.00
H3       0.61999    0.10975    0.55180   1.00
C4       0.75077    0.47917    0.24993   1.00
C4       0.74923    0.52083    0.25007   1.00
C3       0.78285    0.45846    0.26573   1.00
C3       0.76243    0.54321    0.28215   1.00
C3       0.71975    0.45643    0.23477   1.00
C3       0.73519    0.54187    0.21742   1.00
C2       0.75279    0.39487    0.25123   1.00
C2       0.74746    0.60514    0.24897   1.00
C3       0.78378    0.41715    0.26629   1.00
C3       0.76147    0.58449    0.28156   1.00
C3       0.72083    0.41514    0.23543   1.00
C3a      0.73417    0.58328    0.21670   1.00
H1       0.80758    0.47425    0.27743   1.00
H1       0.77315    0.52875    0.30811   1.00
H1       0.80887    0.40240    0.27856   1.00
H1       0.77168    0.60056    0.30678   1.00
H1       0.69644    0.39882    0.22374   1.00
C5       0.71909    0.60380    0.18091   1.00
H1       0.72504    0.52622    0.19195   1.00
H1       0.69408    0.47059    0.22300   1.00
H2       0.71941    0.63599    0.18493   1.00
H2       0.73878    0.59705    0.15604   1.00
N1       0.67924    0.59125    0.17211   1.00
C6       0.64777    0.59644    0.19506   1.00
C6       0.66722    0.57288    0.13952   1.00
C6       0.61525    0.58102    0.17705   1.00
C6       0.62762    0.56604    0.14173   1.00
H3       0.64834    0.61049    0.22337   1.00
H3       0.68601    0.56484    0.11544   1.00
H3       0.58581    0.58076    0.18839   1.00
H3       0.60975    0.55180    0.11999   1.00
C4       0.52083    0.24993    0.24923   1.00
C4       0.47917    0.25007    0.25077   1.00
C3       0.54154    0.26573    0.21715   1.00
C3       0.45679    0.28215    0.23757   1.00
C3       0.54357    0.23477    0.28025   1.00
C3       0.45813    0.21742    0.26481   1.00
C2       0.60513    0.25123    0.24721   1.00
C2       0.39486    0.24897    0.25254   1.00
C3       0.58285    0.26629    0.21622   1.00
C3       0.41551    0.28156    0.23853   1.00
C3       0.58486    0.23543    0.27917   1.00
C3a      0.41672    0.21670    0.26583   1.00
H1       0.52575    0.27743    0.19242   1.00
H1       0.47125    0.30811    0.22685   1.00
H1       0.59760    0.27856    0.19113   1.00
H1       0.39944    0.30678    0.22832   1.00
H1       0.60118    0.22374    0.30356   1.00
C5       0.39620    0.18091    0.28091   1.00
H1       0.47378    0.19195    0.27496   1.00
H1       0.52941    0.22300    0.30592   1.00
H2       0.36401    0.18493    0.28059   1.00
H2       0.40295    0.15604    0.26122   1.00
N1       0.40875    0.17211    0.32076   1.00
C6       0.40356    0.19506    0.35223   1.00
C6       0.42712    0.13952    0.33278   1.00
C6       0.41898    0.17705    0.38475   1.00
C6       0.43396    0.14173    0.37238   1.00
H3       0.38951    0.22337    0.35166   1.00
H3       0.43516    0.11544    0.31399   1.00
H3       0.41924    0.18839    0.41419   1.00
H3       0.44820    0.11999    0.39025   1.00
C4       0.97917    0.24993    0.25077   1.00
C4       1.02083    0.25007    0.24923   1.00
C3       0.95846    0.26573    0.28285   1.00
C3       1.04321    0.28215    0.26243   1.00
C3       0.95643    0.23477    0.21975   1.00
C3       1.04187    0.21742    0.23519   1.00
C2       0.89487    0.25123    0.25279   1.00
C2       1.10514    0.24897    0.24746   1.00
C3       0.91715    0.26629    0.28378   1.00
C3       1.08449    0.28156    0.26147   1.00
C3       0.91514    0.23543    0.22083   1.00
C3a      1.08328    0.21670    0.23417   1.00
H1       0.97425    0.27743    0.30758   1.00
H1       1.02875    0.30811    0.27315   1.00
H1       0.90240    0.27856    0.30887   1.00
H1       1.10056    0.30678    0.27168   1.00
H1       0.89882    0.22374    0.19644   1.00
C5       1.10380    0.18091    0.21909   1.00
H1       1.02622    0.19195    0.22504   1.00
H1       0.97059    0.22300    0.19408   1.00
H2       1.13599    0.18493    0.21941   1.00
H2       1.09705    0.15604    0.23878   1.00
N1       1.09125    0.17211    0.17924   1.00
C6       1.09644    0.19506    0.14777   1.00
C6       1.07288    0.13952    0.16722   1.00
C6       1.08102    0.17705    0.11525   1.00
C6       1.06604    0.14173    0.12762   1.00
H3       1.11049    0.22337    0.14834   1.00
H3       1.06484    0.11544    0.18601   1.00
H3       1.08076    0.18839    0.08581   1.00
H3       1.05180    0.11999    0.10975   1.00
C4       0.74923    0.02083    0.24993   1.00
C4       0.75077    -0.02083   0.25007   1.00
C3       0.71715    0.04154    0.26573   1.00
C3       0.73757    -0.04321   0.28215   1.00
C3       0.78025    0.04357    0.23477   1.00
C3       0.76481    -0.04187   0.21742   1.00
C2       0.74721    0.10513    0.25123   1.00
C2       0.75254    -0.10514   0.24897   1.00
C3       0.71622    0.08285    0.26629   1.00
C3       0.73853    -0.08449   0.28156   1.00
C3       0.77917    0.08486    0.23543   1.00
C3a      0.76583    -0.08328   0.21670   1.00
H1       0.69242    0.02575    0.27743   1.00
H1       0.72685    -0.02875   0.30811   1.00
H1       0.69113    0.09760    0.27856   1.00
H1       0.72832    -0.10056   0.30678   1.00
H1       0.80356    0.10118    0.22374   1.00
C5       0.78091    -0.10380   0.18091   1.00
H1       0.77496    -0.02622   0.19195   1.00
H1       0.80592    0.02941    0.22300   1.00
H2       0.78059    -0.13599   0.18493   1.00
H2       0.76122    -0.09705   0.15604   1.00
N1       0.82076    -0.09125   0.17211   1.00
C6       0.85223    -0.09644   0.19506   1.00
C6       0.83278    -0.07288   0.13952   1.00
C6       0.88475    -0.08102   0.17705   1.00
C6       0.87238    -0.06604   0.14173   1.00
H3       0.85166    -0.11049   0.22337   1.00
H3       0.81399    -0.06484   0.11544   1.00
H3       0.91419    -0.08076   0.18839   1.00
H3       0.89025    -0.05180   0.11999   1.00
C4       0.74993    0.24923    0.02083   1.00
C4       0.75007    0.25077    -0.02083   1.00
C3       0.76573    0.21715    0.04154   1.00
C3       0.78215    0.23757    -0.04321   1.00
C3       0.73477    0.28025    0.04357   1.00
C3       0.71742    0.26481    -0.04187   1.00
C2       0.75123    0.24721    0.10513   1.00
C2       0.74897    0.25254    -0.10514   1.00
C3       0.76629    0.21622    0.08285   1.00
C3       0.78156    0.23853    -0.08449   1.00
C3       0.73543    0.27917    0.08486   1.00
C3a      0.71670    0.26583    -0.08328   1.00
H1       0.77743    0.19242    0.02575   1.00
H1       0.80811    0.22685    -0.02875   1.00
H1       0.77856    0.19113    0.09760   1.00
H1       0.80678    0.22832    -0.10056   1.00
H1       0.72374    0.30356    0.10118   1.00
C5       0.68091    0.28091    -0.10380   1.00
H1       0.69195    0.27496    -0.02622   1.00
H1       0.72300    0.30592    0.02941   1.00
H2       0.68493    0.28059    -0.13599   1.00
H2       0.65604    0.26122    -0.09705   1.00
N1       0.67211    0.32076    -0.09125   1.00
C6       0.69506    0.35223    -0.09644   1.00
C6       0.63952    0.33278    -0.07288   1.00
C6       0.67705    0.38475    -0.08102   1.00
C6       0.64173    0.37238    -0.06604   1.00
H3       0.72337    0.35166    -0.11049   1.00
H3       0.61544    0.31399    -0.06484   1.00
H3       0.68839    0.41419    -0.08076   1.00
H3       0.61999    0.39025    -0.05180   1.00
C4       0.99993    1.00077    1.22917   1.00
C4       1.00007    0.99923    1.27083   1.00
C3       1.01573    1.03285    1.20846   1.00
C3       1.03215    1.01243    1.29321   1.00
C3       0.98477    0.96975    1.20643   1.00
C3       0.96742    0.98519    1.29187   1.00
C2       1.00123    1.00279    1.14487   1.00
C2       0.99897    0.99746    1.35514   1.00
C3       1.01629    1.03378    1.16715   1.00
C3       1.03156    1.01147    1.33449   1.00
C3       0.98543    0.97083    1.16514   1.00
C3a      0.96670    0.98417    1.33328   1.00
H1       1.02743    1.05758    1.22425   1.00
H1       1.05811    1.02315    1.27875   1.00
H1       1.02856    1.05887    1.15240   1.00
H1       1.05678    1.02168    1.35056   1.00
H1       0.97374    0.94644    1.14882   1.00
C5       0.93091    0.96909    1.35380   1.00
H1       0.94195    0.97504    1.27622   1.00
H1       0.97300    0.94408    1.22059   1.00
H2       0.93493    0.96941    1.38599   1.00
H2       0.90604    0.98878    1.34705   1.00
N1       0.92211    0.92924    1.34125   1.00
C6       0.94506    0.89777    1.34644   1.00
C6       0.88952    0.91722    1.32288   1.00
C6       0.92705    0.86525    1.33102   1.00
C6       0.89173    0.87762    1.31604   1.00
H3       0.97337    0.89834    1.36049   1.00
H3       0.86544    0.93601    1.31484   1.00
H3       0.93839    0.83581    1.33076   1.00
H3       0.86999    0.85975    1.30180   1.00
C4       1.00077    1.22917    0.99993   1.00
C4       0.99923    1.27083    1.00007   1.00
C3       1.03285    1.20846    1.01573   1.00
C3       1.01243    1.29321    1.03215   1.00
C3       0.96975    1.20643    0.98477   1.00
C3       0.98519    1.29187    0.96742   1.00
C2       1.00279    1.14487    1.00123   1.00
C2       0.99746    1.35514    0.99897   1.00
C3       1.03378    1.16715    1.01629   1.00
C3       1.01147    1.33449    1.03156   1.00
C3       0.97083    1.16514    0.98543   1.00
C3a      0.98417    1.33328    0.96670   1.00
H1       1.05758    1.22425    1.02743   1.00
H1       1.02315    1.27875    1.05811   1.00
H1       1.05887    1.15240    1.02856   1.00
H1       1.02168    1.35056    1.05678   1.00
H1       0.94644    1.14882    0.97374   1.00
C5       0.96909    1.35380    0.93091   1.00
H1       0.97504    1.27622    0.94195   1.00
H1       0.94408    1.22059    0.97300   1.00
H2       0.96941    1.38599    0.93493   1.00
H2       0.98878    1.34705    0.90604   1.00
N1       0.92924    1.34125    0.92211   1.00
C6       0.89777    1.34644    0.94506   1.00
C6       0.91722    1.32288    0.88952   1.00
C6       0.86525    1.33102    0.92705   1.00
C6       0.87762    1.31604    0.89173   1.00
H3       0.89834    1.36049    0.97337   1.00
H3       0.93601    1.31484    0.86544   1.00
H3       0.83581    1.33076    0.93839   1.00
H3       0.85975    1.30180    0.86999   1.00
C4       0.77083    0.99993    0.99923   1.00
C4       0.72917    1.00007    1.00077   1.00
C3       0.79154    1.01573    0.96715   1.00
C3       0.70679    1.03215    0.98757   1.00
C3       0.79357    0.98477    1.03025   1.00
C3       0.70813    0.96742    1.01481   1.00
C2       0.85513    1.00123    0.99721   1.00
C2       0.64486    0.99897    1.00254   1.00
C3       0.83285    1.01629    0.96622   1.00
C3       0.66551    1.03156    0.98853   1.00
C3       0.83486    0.98543    1.02917   1.00
C3a      0.66672    0.96670    1.01583   1.00
H1       0.77575    1.02743    0.94242   1.00
H1       0.72125    1.05811    0.97685   1.00
H1       0.84760    1.02856    0.94113   1.00
H1       0.64944    1.05678    0.97832   1.00
H1       0.85118    0.97374    1.05356   1.00
C5       0.64620    0.93091    1.03091   1.00
H1       0.72378    0.94195    1.02496   1.00
H1       0.77941    0.97300    1.05592   1.00
H2       0.61401    0.93493    1.03059   1.00
H2       0.65295    0.90604    1.01122   1.00
N1       0.65875    0.92211    1.07076   1.00
C6       0.65356    0.94506    1.10223   1.00
C6       0.67712    0.88952    1.08278   1.00
C6       0.66898    0.92705    1.13475   1.00
C6       0.68396    0.89173    1.12238   1.00
H3       0.63951    0.97337    1.10166   1.00
H3       0.68516    0.86544    1.06399   1.00
H3       0.66924    0.93839    1.16419   1.00
H3       0.69820    0.86999    1.14025   1.00
C4       1.22917    0.99993    1.00077   1.00
C4       1.27083    1.00007    0.99923   1.00
C3       1.20846    1.01573    1.03285   1.00
C3       1.29321    1.03215    1.01243   1.00
C3       1.20643    0.98477    0.96975   1.00
C3       1.29187    0.96742    0.98519   1.00
C2       1.14487    1.00123    1.00279   1.00
C2       1.35514    0.99897    0.99746   1.00
C3       1.16715    1.01629    1.03378   1.00
C3       1.33449    1.03156    1.01147   1.00
C3       1.16514    0.98543    0.97083   1.00
C3a      1.33328    0.96670    0.98417   1.00
H1       1.22425    1.02743    1.05758   1.00
H1       1.27875    1.05811    1.02315   1.00
H1       1.15240    1.02856    1.05887   1.00
H1       1.35056    1.05678    1.02168   1.00
H1       1.14882    0.97374    0.94644   1.00
C5       1.35380    0.93091    0.96909   1.00
H1       1.27622    0.94195    0.97504   1.00
H1       1.22059    0.97300    0.94408   1.00
H2       1.38599    0.93493    0.96941   1.00
H2       1.34705    0.90604    0.98878   1.00
N1       1.34125    0.92211    0.92924   1.00
C6       1.34644    0.94506    0.89777   1.00
C6       1.32288    0.88952    0.91722   1.00
C6       1.33102    0.92705    0.86525   1.00
C6       1.31604    0.89173    0.87762   1.00
H3       1.36049    0.97337    0.89834   1.00
H3       1.31484    0.86544    0.93601   1.00
H3       1.33076    0.93839    0.83581   1.00
H3       1.30180    0.86999    0.85975   1.00
C4       0.99923    0.77083    0.99993   1.00
C4       1.00077    0.72917    1.00007   1.00
C3       0.96715    0.79154    1.01573   1.00
C3       0.98757    0.70679    1.03215   1.00
C3       1.03025    0.79357    0.98477   1.00
C3       1.01481    0.70813    0.96742   1.00
C2       0.99721    0.85513    1.00123   1.00
C2       1.00254    0.64486    0.99897   1.00
C3       0.96622    0.83285    1.01629   1.00
C3       0.98853    0.66551    1.03156   1.00
C3       1.02917    0.83486    0.98543   1.00
C3a      1.01583    0.66672    0.96670   1.00
H1       0.94242    0.77575    1.02743   1.00
H1       0.97685    0.72125    1.05811   1.00
H1       0.94113    0.84760    1.02856   1.00
H1       0.97832    0.64944    1.05678   1.00
H1       1.05356    0.85118    0.97374   1.00
C5       1.03091    0.64620    0.93091   1.00
H1       1.02496    0.72378    0.94195   1.00
H1       1.05592    0.77941    0.97300   1.00
H2       1.03059    0.61401    0.93493   1.00
H2       1.01122    0.65295    0.90604   1.00
N1       1.07076    0.65875    0.92211   1.00
C6       1.10223    0.65356    0.94506   1.00
C6       1.08278    0.67712    0.88952   1.00
C6       1.13475    0.66898    0.92705   1.00
C6       1.12238    0.68396    0.89173   1.00
H3       1.10166    0.63951    0.97337   1.00
H3       1.06399    0.68516    0.86544   1.00
H3       1.16419    0.66924    0.93839   1.00
H3       1.14025    0.69820    0.86999   1.00
C4       0.99993    0.99923    0.77083   1.00
C4       1.00007    1.00077    0.72917   1.00
C3       1.01573    0.96715    0.79154   1.00
C3       1.03215    0.98757    0.70679   1.00
C3       0.98477    1.03025    0.79357   1.00
C3       0.96742    1.01481    0.70813   1.00
C2       1.00123    0.99721    0.85513   1.00
C2       0.99897    1.00254    0.64486   1.00
C3       1.01629    0.96622    0.83285   1.00
C3       1.03156    0.98853    0.66551   1.00
C3       0.98543    1.02917    0.83486   1.00
C3a      0.96670    1.01583    0.66672   1.00
H1       1.02743    0.94242    0.77575   1.00
H1       1.05811    0.97685    0.72125   1.00
H1       1.02856    0.94113    0.84760   1.00
H1       1.05678    0.97832    0.64944   1.00
H1       0.97374    1.05356    0.85118   1.00
C5       0.93091    1.03091    0.64620   1.00
H1       0.94195    1.02496    0.72378   1.00
H1       0.97300    1.05592    0.77941   1.00
H2       0.93493    1.03059    0.61401   1.00
H2       0.90604    1.01122    0.65295   1.00
N1       0.92211    1.07076    0.65875   1.00
C6       0.94506    1.10223    0.65356   1.00
C6       0.88952    1.08278    0.67712   1.00
C6       0.92705    1.13475    0.66898   1.00
C6       0.89173    1.12238    0.68396   1.00
H3       0.97337    1.10166    0.63951   1.00
H3       0.86544    1.06399    0.68516   1.00
H3       0.93839    1.16419    0.66924   1.00
H3       0.86999    1.14025    0.69820   1.00
C4       0.49993    0.50077    1.22917   1.00
C4       0.50007    0.49923    1.27083   1.00
C3       0.51573    0.53285    1.20846   1.00
C3       0.53215    0.51243    1.29321   1.00
C3       0.48477    0.46975    1.20643   1.00
C3       0.46742    0.48519    1.29187   1.00
C2       0.50123    0.50279    1.14487   1.00
C2       0.49897    0.49746    1.35514   1.00
C3       0.51629    0.53378    1.16715   1.00
C3       0.53156    0.51147    1.33449   1.00
C3       0.48543    0.47083    1.16514   1.00
C3a      0.46670    0.48417    1.33328   1.00
H1       0.52743    0.55758    1.22425   1.00
H1       0.55811    0.52315    1.27875   1.00
H1       0.52856    0.55887    1.15240   1.00
H1       0.55678    0.52168    1.35056   1.00
H1       0.47374    0.44644    1.14882   1.00
C5       0.43091    0.46909    1.35380   1.00
H1       0.44195    0.47504    1.27622   1.00
H1       0.47300    0.44408    1.22059   1.00
H2       0.43493    0.46941    1.38599   1.00
H2       0.40604    0.48878    1.34705   1.00
N1       0.42211    0.42924    1.34125   1.00
C6       0.44506    0.39777    1.34644   1.00
C6       0.38952    0.41722    1.32288   1.00
C6       0.42705    0.36525    1.33102   1.00
C6       0.39173    0.37762    1.31604   1.00
H3       0.47337    0.39834    1.36049   1.00
H3       0.36544    0.43601    1.31484   1.00
H3       0.43839    0.33581    1.33076   1.00
H3       0.36999    0.35975    1.30180   1.00
C4       0.50077    0.72917    0.99993   1.00
C4       0.49923    0.77083    1.00007   1.00
C3       0.53285    0.70846    1.01573   1.00
C3       0.51243    0.79321    1.03215   1.00
C3       0.46975    0.70643    0.98477   1.00
C3       0.48519    0.79187    0.96742   1.00
C2       0.50279    0.64487    1.00123   1.00
C2       0.49746    0.85514    0.99897   1.00
C3       0.53378    0.66715    1.01629   1.00
C3       0.51147    0.83449    1.03156   1.00
C3       0.47083    0.66514    0.98543   1.00
C3a      0.48417    0.83328    0.96670   1.00
H1       0.55758    0.72425    1.02743   1.00
H1       0.52315    0.77875    1.05811   1.00
H1       0.55887    0.65240    1.02856   1.00
H1       0.52168    0.85056    1.05678   1.00
H1       0.44644    0.64882    0.97374   1.00
C5       0.46909    0.85380    0.93091   1.00
H1       0.47504    0.77622    0.94195   1.00
H1       0.44408    0.72059    0.97300   1.00
H2       0.46941    0.88599    0.93493   1.00
H2       0.48878    0.84705    0.90604   1.00
N1       0.42924    0.84125    0.92211   1.00
C6       0.39777    0.84644    0.94506   1.00
C6       0.41722    0.82288    0.88952   1.00
C6       0.36525    0.83102    0.92705   1.00
C6       0.37762    0.81604    0.89173   1.00
H3       0.39834    0.86049    0.97337   1.00
H3       0.43601    0.81484    0.86544   1.00
H3       0.33581    0.83076    0.93839   1.00
H3       0.35975    0.80180    0.86999   1.00
C4       0.27083    0.49993    0.99923   1.00
C4       0.22917    0.50007    1.00077   1.00
C3       0.29154    0.51573    0.96715   1.00
C3       0.20679    0.53215    0.98757   1.00
C3       0.29357    0.48477    1.03025   1.00
C3       0.20813    0.46742    1.01481   1.00
C2       0.35513    0.50123    0.99721   1.00
C2       0.14486    0.49897    1.00254   1.00
C3       0.33285    0.51629    0.96622   1.00
C3       0.16551    0.53156    0.98853   1.00
C3       0.33486    0.48543    1.02917   1.00
C3a      0.16672    0.46670    1.01583   1.00
H1       0.27575    0.52743    0.94242   1.00
H1       0.22125    0.55811    0.97685   1.00
H1       0.34760    0.52856    0.94113   1.00
H1       0.14944    0.55678    0.97832   1.00
H1       0.35118    0.47374    1.05356   1.00
C5       0.14620    0.43091    1.03091   1.00
H1       0.22378    0.44195    1.02496   1.00
H1       0.27941    0.47300    1.05592   1.00
H2       0.11401    0.43493    1.03059   1.00
H2       0.15295    0.40604    1.01122   1.00
N1       0.15875    0.42211    1.07076   1.00
C6       0.15356    0.44506    1.10223   1.00
C6       0.17712    0.38952    1.08278   1.00
C6       0.16898    0.42705    1.13475   1.00
C6       0.18396    0.39173    1.12238   1.00
H3       0.13951    0.47337    1.10166   1.00
H3       0.18516    0.36544    1.06399   1.00
H3       0.16924    0.43839    1.16419   1.00
H3       0.19820    0.36999    1.14025   1.00
C4       0.72917    0.49993    1.00077   1.00
C4       0.77083    0.50007    0.99923   1.00
C3       0.70846    0.51573    1.03285   1.00
C3       0.79321    0.53215    1.01243   1.00
C3       0.70643    0.48477    0.96975   1.00
C3       0.79187    0.46742    0.98519   1.00
C2       0.64487    0.50123    1.00279   1.00
C2       0.85514    0.49897    0.99746   1.00
C3       0.66715    0.51629    1.03378   1.00
C3       0.83449    0.53156    1.01147   1.00
C3       0.66514    0.48543    0.97083   1.00
C3a      0.83328    0.46670    0.98417   1.00
H1       0.72425    0.52743    1.05758   1.00
H1       0.77875    0.55811    1.02315   1.00
H1       0.65240    0.52856    1.05887   1.00
H1       0.85056    0.55678    1.02168   1.00
H1       0.64882    0.47374    0.94644   1.00
C5       0.85380    0.43091    0.96909   1.00
H1       0.77622    0.44195    0.97504   1.00
H1       0.72059    0.47300    0.94408   1.00
H2       0.88599    0.43493    0.96941   1.00
H2       0.84705    0.40604    0.98878   1.00
N1       0.84125    0.42211    0.92924   1.00
C6       0.84644    0.44506    0.89777   1.00
C6       0.82288    0.38952    0.91722   1.00
C6       0.83102    0.42705    0.86525   1.00
C6       0.81604    0.39173    0.87762   1.00
H3       0.86049    0.47337    0.89834   1.00
H3       0.81484    0.36544    0.93601   1.00
H3       0.83076    0.43839    0.83581   1.00
H3       0.80180    0.36999    0.85975   1.00
C4       0.49923    0.27083    0.99993   1.00
C4       0.50077    0.22917    1.00007   1.00
C3       0.46715    0.29154    1.01573   1.00
C3       0.48757    0.20679    1.03215   1.00
C3       0.53025    0.29357    0.98477   1.00
C3       0.51481    0.20813    0.96742   1.00
C2       0.49721    0.35513    1.00123   1.00
C2       0.50254    0.14486    0.99897   1.00
C3       0.46622    0.33285    1.01629   1.00
C3       0.48853    0.16551    1.03156   1.00
C3       0.52917    0.33486    0.98543   1.00
C3a      0.51583    0.16672    0.96670   1.00
H1       0.44242    0.27575    1.02743   1.00
H1       0.47685    0.22125    1.05811   1.00
H1       0.44113    0.34760    1.02856   1.00
H1       0.47832    0.14944    1.05678   1.00
H1       0.55356    0.35118    0.97374   1.00
C5       0.53091    0.14620    0.93091   1.00
H1       0.52496    0.22378    0.94195   1.00
H1       0.55592    0.27941    0.97300   1.00
H2       0.53059    0.11401    0.93493   1.00
H2       0.51122    0.15295    0.90604   1.00
N1       0.57076    0.15875    0.92211   1.00
C6       0.60223    0.15356    0.94506   1.00
C6       0.58278    0.17712    0.88952   1.00
C6       0.63475    0.16898    0.92705   1.00
C6       0.62238    0.18396    0.89173   1.00
H3       0.60166    0.13951    0.97337   1.00
H3       0.56399    0.18516    0.86544   1.00
H3       0.66419    0.16924    0.93839   1.00
H3       0.64025    0.19820    0.86999   1.00
C4       0.49993    0.49923    0.77083   1.00
C4       0.50007    0.50077    0.72917   1.00
C3       0.51573    0.46715    0.79154   1.00
C3       0.53215    0.48757    0.70679   1.00
C3       0.48477    0.53025    0.79357   1.00
C3       0.46742    0.51481    0.70813   1.00
C2       0.50123    0.49721    0.85513   1.00
C2       0.49897    0.50254    0.64486   1.00
C3       0.51629    0.46622    0.83285   1.00
C3       0.53156    0.48853    0.66551   1.00
C3       0.48543    0.52917    0.83486   1.00
C3a      0.46670    0.51583    0.66672   1.00
H1       0.52743    0.44242    0.77575   1.00
H1       0.55811    0.47685    0.72125   1.00
H1       0.52856    0.44113    0.84760   1.00
H1       0.55678    0.47832    0.64944   1.00
H1       0.47374    0.55356    0.85118   1.00
C5       0.43091    0.53091    0.64620   1.00
H1       0.44195    0.52496    0.72378   1.00
H1       0.47300    0.55592    0.77941   1.00
H2       0.43493    0.53059    0.61401   1.00
H2       0.40604    0.51122    0.65295   1.00
N1       0.42211    0.57076    0.65875   1.00
C6       0.44506    0.60223    0.65356   1.00
C6       0.38952    0.58278    0.67712   1.00
C6       0.42705    0.63475    0.66898   1.00
C6       0.39173    0.62238    0.68396   1.00
H3       0.47337    0.60166    0.63951   1.00
H3       0.36544    0.56399    0.68516   1.00
H3       0.43839    0.66419    0.66924   1.00
H3       0.36999    0.64025    0.69820   1.00
C4       0.49993    1.00077    0.72917   1.00
C4       0.50007    0.99923    0.77083   1.00
C3       0.51573    1.03285    0.70846   1.00
C3       0.53215    1.01243    0.79321   1.00
C3       0.48477    0.96975    0.70643   1.00
C3       0.46742    0.98519    0.79187   1.00
C2       0.50123    1.00279    0.64487   1.00
C2       0.49897    0.99746    0.85514   1.00
C3       0.51629    1.03378    0.66715   1.00
C3       0.53156    1.01147    0.83449   1.00
C3       0.48543    0.97083    0.66514   1.00
C3a      0.46670    0.98417    0.83328   1.00
H1       0.52743    1.05758    0.72425   1.00
H1       0.55811    1.02315    0.77875   1.00
H1       0.52856    1.05887    0.65240   1.00
H1       0.55678    1.02168    0.85056   1.00
H1       0.47374    0.94644    0.64882   1.00
C5       0.43091    0.96909    0.85380   1.00
H1       0.44195    0.97504    0.77622   1.00
H1       0.47300    0.94408    0.72059   1.00
H2       0.43493    0.96941    0.88599   1.00
H2       0.40604    0.98878    0.84705   1.00
N1       0.42211    0.92924    0.84125   1.00
C6       0.44506    0.89777    0.84644   1.00
C6       0.38952    0.91722    0.82288   1.00
C6       0.42705    0.86525    0.83102   1.00
C6       0.39173    0.87762    0.81604   1.00
H3       0.47337    0.89834    0.86049   1.00
H3       0.36544    0.93601    0.81484   1.00
H3       0.43839    0.83581    0.83076   1.00
H3       0.36999    0.85975    0.80180   1.00
C4       0.50077    1.22917    0.49993   1.00
C4       0.49923    1.27083    0.50007   1.00
C3       0.53285    1.20846    0.51573   1.00
C3       0.51243    1.29321    0.53215   1.00
C3       0.46975    1.20643    0.48477   1.00
C3       0.48519    1.29187    0.46742   1.00
C2       0.50279    1.14487    0.50123   1.00
C2       0.49746    1.35514    0.49897   1.00
C3       0.53378    1.16715    0.51629   1.00
C3       0.51147    1.33449    0.53156   1.00
C3       0.47083    1.16514    0.48543   1.00
C3a      0.48417    1.33328    0.46670   1.00
H1       0.55758    1.22425    0.52743   1.00
H1       0.52315    1.27875    0.55811   1.00
H1       0.55887    1.15240    0.52856   1.00
H1       0.52168    1.35056    0.55678   1.00
H1       0.44644    1.14882    0.47374   1.00
C5       0.46909    1.35380    0.43091   1.00
H1       0.47504    1.27622    0.44195   1.00
H1       0.44408    1.22059    0.47300   1.00
H2       0.46941    1.38599    0.43493   1.00
H2       0.48878    1.34705    0.40604   1.00
N1       0.42924    1.34125    0.42211   1.00
C6       0.39777    1.34644    0.44506   1.00
C6       0.41722    1.32288    0.38952   1.00
C6       0.36525    1.33102    0.42705   1.00
C6       0.37762    1.31604    0.39173   1.00
H3       0.39834    1.36049    0.47337   1.00
H3       0.43601    1.31484    0.36544   1.00
H3       0.33581    1.33076    0.43839   1.00
H3       0.35975    1.30180    0.36999   1.00
C4       0.27083    0.99993    0.49923   1.00
C4       0.22917    1.00007    0.50077   1.00
C3       0.29154    1.01573    0.46715   1.00
C3       0.20679    1.03215    0.48757   1.00
C3       0.29357    0.98477    0.53025   1.00
C3       0.20813    0.96742    0.51481   1.00
C2       0.35513    1.00123    0.49721   1.00
C2       0.14486    0.99897    0.50254   1.00
C3       0.33285    1.01629    0.46622   1.00
C3       0.16551    1.03156    0.48853   1.00
C3       0.33486    0.98543    0.52917   1.00
C3a      0.16672    0.96670    0.51583   1.00
H1       0.27575    1.02743    0.44242   1.00
H1       0.22125    1.05811    0.47685   1.00
H1       0.34760    1.02856    0.44113   1.00
H1       0.14944    1.05678    0.47832   1.00
H1       0.35118    0.97374    0.55356   1.00
C5       0.14620    0.93091    0.53091   1.00
H1       0.22378    0.94195    0.52496   1.00
H1       0.27941    0.97300    0.55592   1.00
H2       0.11401    0.93493    0.53059   1.00
H2       0.15295    0.90604    0.51122   1.00
N1       0.15875    0.92211    0.57076   1.00
C6       0.15356    0.94506    0.60223   1.00
C6       0.17712    0.88952    0.58278   1.00
C6       0.16898    0.92705    0.63475   1.00
C6       0.18396    0.89173    0.62238   1.00
H3       0.13951    0.97337    0.60166   1.00
H3       0.18516    0.86544    0.56399   1.00
H3       0.16924    0.93839    0.66419   1.00
H3       0.19820    0.86999    0.64025   1.00
C4       0.72917    0.99993    0.50077   1.00
C4       0.77083    1.00007    0.49923   1.00
C3       0.70846    1.01573    0.53285   1.00
C3       0.79321    1.03215    0.51243   1.00
C3       0.70643    0.98477    0.46975   1.00
C3       0.79187    0.96742    0.48519   1.00
C2       0.64487    1.00123    0.50279   1.00
C2       0.85514    0.99897    0.49746   1.00
C3       0.66715    1.01629    0.53378   1.00
C3       0.83449    1.03156    0.51147   1.00
C3       0.66514    0.98543    0.47083   1.00
C3a      0.83328    0.96670    0.48417   1.00
H1       0.72425    1.02743    0.55758   1.00
H1       0.77875    1.05811    0.52315   1.00
H1       0.65240    1.02856    0.55887   1.00
H1       0.85056    1.05678    0.52168   1.00
H1       0.64882    0.97374    0.44644   1.00
C5       0.85380    0.93091    0.46909   1.00
H1       0.77622    0.94195    0.47504   1.00
H1       0.72059    0.97300    0.44408   1.00
H2       0.88599    0.93493    0.46941   1.00
H2       0.84705    0.90604    0.48878   1.00
N1       0.84125    0.92211    0.42924   1.00
C6       0.84644    0.94506    0.39777   1.00
C6       0.82288    0.88952    0.41722   1.00
C6       0.83102    0.92705    0.36525   1.00
C6       0.81604    0.89173    0.37762   1.00
H3       0.86049    0.97337    0.39834   1.00
H3       0.81484    0.86544    0.43601   1.00
H3       0.83076    0.93839    0.33581   1.00
H3       0.80180    0.86999    0.35975   1.00
C4       0.49923    0.77083    0.49993   1.00
C4       0.50077    0.72917    0.50007   1.00
C3       0.46715    0.79154    0.51573   1.00
C3       0.48757    0.70679    0.53215   1.00
C3       0.53025    0.79357    0.48477   1.00
C3       0.51481    0.70813    0.46742   1.00
C2       0.49721    0.85513    0.50123   1.00
C2       0.50254    0.64486    0.49897   1.00
C3       0.46622    0.83285    0.51629   1.00
C3       0.48853    0.66551    0.53156   1.00
C3       0.52917    0.83486    0.48543   1.00
C3a      0.51583    0.66672    0.46670   1.00
H1       0.44242    0.77575    0.52743   1.00
H1       0.47685    0.72125    0.55811   1.00
H1       0.44113    0.84760    0.52856   1.00
H1       0.47832    0.64944    0.55678   1.00
H1       0.55356    0.85118    0.47374   1.00
C5       0.53091    0.64620    0.43091   1.00
H1       0.52496    0.72378    0.44195   1.00
H1       0.55592    0.77941    0.47300   1.00
H2       0.53059    0.61401    0.43493   1.00
H2       0.51122    0.65295    0.40604   1.00
N1       0.57076    0.65875    0.42211   1.00
C6       0.60223    0.65356    0.44506   1.00
C6       0.58278    0.67712    0.38952   1.00
C6       0.63475    0.66898    0.42705   1.00
C6       0.62238    0.68396    0.39173   1.00
H3       0.60166    0.63951    0.47337   1.00
H3       0.56399    0.68516    0.36544   1.00
H3       0.66419    0.66924    0.43839   1.00
H3       0.64025    0.69820    0.36999   1.00
C4       0.49993    0.99923    0.27083   1.00
C4       0.50007    1.00077    0.22917   1.00
C3       0.51573    0.96715    0.29154   1.00
C3       0.53215    0.98757    0.20679   1.00
C3       0.48477    1.03025    0.29357   1.00
C3       0.46742    1.01481    0.20813   1.00
C2       0.50123    0.99721    0.35513   1.00
C2       0.49897    1.00254    0.14486   1.00
C3       0.51629    0.96622    0.33285   1.00
C3       0.53156    0.98853    0.16551   1.00
C3       0.48543    1.02917    0.33486   1.00
C3a      0.46670    1.01583    0.16672   1.00
H1       0.52743    0.94242    0.27575   1.00
H1       0.55811    0.97685    0.22125   1.00
H1       0.52856    0.94113    0.34760   1.00
H1       0.55678    0.97832    0.14944   1.00
H1       0.47374    1.05356    0.35118   1.00
C5       0.43091    1.03091    0.14620   1.00
H1       0.44195    1.02496    0.22378   1.00
H1       0.47300    1.05592    0.27941   1.00
H2       0.43493    1.03059    0.11401   1.00
H2       0.40604    1.01122    0.15295   1.00
N1       0.42211    1.07076    0.15875   1.00
C6       0.44506    1.10223    0.15356   1.00
C6       0.38952    1.08278    0.17712   1.00
C6       0.42705    1.13475    0.16898   1.00
C6       0.39173    1.12238    0.18396   1.00
H3       0.47337    1.10166    0.13951   1.00
H3       0.36544    1.06399    0.18516   1.00
H3       0.43839    1.16419    0.16924   1.00
H3       0.36999    1.14025    0.19820   1.00
C4       0.99993    0.50077    0.72917   1.00
C4       1.00007    0.49923    0.77083   1.00
C3       1.01573    0.53285    0.70846   1.00
C3       1.03215    0.51243    0.79321   1.00
C3       0.98477    0.46975    0.70643   1.00
C3       0.96742    0.48519    0.79187   1.00
C2       1.00123    0.50279    0.64487   1.00
C2       0.99897    0.49746    0.85514   1.00
C3       1.01629    0.53378    0.66715   1.00
C3       1.03156    0.51147    0.83449   1.00
C3       0.98543    0.47083    0.66514   1.00
C3a      0.96670    0.48417    0.83328   1.00
H1       1.02743    0.55758    0.72425   1.00
H1       1.05811    0.52315    0.77875   1.00
H1       1.02856    0.55887    0.65240   1.00
H1       1.05678    0.52168    0.85056   1.00
H1       0.97374    0.44644    0.64882   1.00
C5       0.93091    0.46909    0.85380   1.00
H1       0.94195    0.47504    0.77622   1.00
H1       0.97300    0.44408    0.72059   1.00
H2       0.93493    0.46941    0.88599   1.00
H2       0.90604    0.48878    0.84705   1.00
N1       0.92211    0.42924    0.84125   1.00
C6       0.94506    0.39777    0.84644   1.00
C6       0.88952    0.41722    0.82288   1.00
C6       0.92705    0.36525    0.83102   1.00
C6       0.89173    0.37762    0.81604   1.00
H3       0.97337    0.39834    0.86049   1.00
H3       0.86544    0.43601    0.81484   1.00
H3       0.93839    0.33581    0.83076   1.00
H3       0.86999    0.35975    0.80180   1.00
C4       1.00077    0.72917    0.49993   1.00
C4       0.99923    0.77083    0.50007   1.00
C3       1.03285    0.70846    0.51573   1.00
C3       1.01243    0.79321    0.53215   1.00
C3       0.96975    0.70643    0.48477   1.00
C3       0.98519    0.79187    0.46742   1.00
C2       1.00279    0.64487    0.50123   1.00
C2       0.99746    0.85514    0.49897   1.00
C3       1.03378    0.66715    0.51629   1.00
C3       1.01147    0.83449    0.53156   1.00
C3       0.97083    0.66514    0.48543   1.00
C3a      0.98417    0.83328    0.46670   1.00
H1       1.05758    0.72425    0.52743   1.00
H1       1.02315    0.77875    0.55811   1.00
H1       1.05887    0.65240    0.52856   1.00
H1       1.02168    0.85056    0.55678   1.00
H1       0.94644    0.64882    0.47374   1.00
C5       0.96909    0.85380    0.43091   1.00
H1       0.97504    0.77622    0.44195   1.00
H1       0.94408    0.72059    0.47300   1.00
H2       0.96941    0.88599    0.43493   1.00
H2       0.98878    0.84705    0.40604   1.00
N1       0.92924    0.84125    0.42211   1.00
C6       0.89777    0.84644    0.44506   1.00
C6       0.91722    0.82288    0.38952   1.00
C6       0.86525    0.83102    0.42705   1.00
C6       0.87762    0.81604    0.39173   1.00
H3       0.89834    0.86049    0.47337   1.00
H3       0.93601    0.81484    0.36544   1.00
H3       0.83581    0.83076    0.43839   1.00
H3       0.85975    0.80180    0.36999   1.00
C4       0.77083    0.49993    0.49923   1.00
C4       0.72917    0.50007    0.50077   1.00
C3       0.79154    0.51573    0.46715   1.00
C3       0.70679    0.53215    0.48757   1.00
C3       0.79357    0.48477    0.53025   1.00
C3       0.70813    0.46742    0.51481   1.00
C2       0.85513    0.50123    0.49721   1.00
C2       0.64486    0.49897    0.50254   1.00
C3       0.83285    0.51629    0.46622   1.00
C3       0.66551    0.53156    0.48853   1.00
C3       0.83486    0.48543    0.52917   1.00
C3a      0.66672    0.46670    0.51583   1.00
H1       0.77575    0.52743    0.44242   1.00
H1       0.72125    0.55811    0.47685   1.00
H1       0.84760    0.52856    0.44113   1.00
H1       0.64944    0.55678    0.47832   1.00
H1       0.85118    0.47374    0.55356   1.00
C5       0.64620    0.43091    0.53091   1.00
H1       0.72378    0.44195    0.52496   1.00
H1       0.77941    0.47300    0.55592   1.00
H2       0.61401    0.43493    0.53059   1.00
H2       0.65295    0.40604    0.51122   1.00
N1       0.65875    0.42211    0.57076   1.00
C6       0.65356    0.44506    0.60223   1.00
C6       0.67712    0.38952    0.58278   1.00
C6       0.66898    0.42705    0.63475   1.00
C6       0.68396    0.39173    0.62238   1.00
H3       0.63951    0.47337    0.60166   1.00
H3       0.68516    0.36544    0.56399   1.00
H3       0.66924    0.43839    0.66419   1.00
H3       0.69820    0.36999    0.64025   1.00
C4       1.22917    0.49993    0.50077   1.00
C4       1.27083    0.50007    0.49923   1.00
C3       1.20846    0.51573    0.53285   1.00
C3       1.29321    0.53215    0.51243   1.00
C3       1.20643    0.48477    0.46975   1.00
C3       1.29187    0.46742    0.48519   1.00
C2       1.14487    0.50123    0.50279   1.00
C2       1.35514    0.49897    0.49746   1.00
C3       1.16715    0.51629    0.53378   1.00
C3       1.33449    0.53156    0.51147   1.00
C3       1.16514    0.48543    0.47083   1.00
C3a      1.33328    0.46670    0.48417   1.00
H1       1.22425    0.52743    0.55758   1.00
H1       1.27875    0.55811    0.52315   1.00
H1       1.15240    0.52856    0.55887   1.00
H1       1.35056    0.55678    0.52168   1.00
H1       1.14882    0.47374    0.44644   1.00
C5       1.35380    0.43091    0.46909   1.00
H1       1.27622    0.44195    0.47504   1.00
H1       1.22059    0.47300    0.44408   1.00
H2       1.38599    0.43493    0.46941   1.00
H2       1.34705    0.40604    0.48878   1.00
N1       1.34125    0.42211    0.42924   1.00
C6       1.34644    0.44506    0.39777   1.00
C6       1.32288    0.38952    0.41722   1.00
C6       1.33102    0.42705    0.36525   1.00
C6       1.31604    0.39173    0.37762   1.00
H3       1.36049    0.47337    0.39834   1.00
H3       1.31484    0.36544    0.43601   1.00
H3       1.33076    0.43839    0.33581   1.00
H3       1.30180    0.36999    0.35975   1.00
C4       0.99923    0.27083    0.49993   1.00
C4       1.00077    0.22917    0.50007   1.00
C3       0.96715    0.29154    0.51573   1.00
C3       0.98757    0.20679    0.53215   1.00
C3       1.03025    0.29357    0.48477   1.00
C3       1.01481    0.20813    0.46742   1.00
C2       0.99721    0.35513    0.50123   1.00
C2       1.00254    0.14486    0.49897   1.00
C3       0.96622    0.33285    0.51629   1.00
C3       0.98853    0.16551    0.53156   1.00
C3       1.02917    0.33486    0.48543   1.00
C3a      1.01583    0.16672    0.46670   1.00
H1       0.94242    0.27575    0.52743   1.00
H1       0.97685    0.22125    0.55811   1.00
H1       0.94113    0.34760    0.52856   1.00
H1       0.97832    0.14944    0.55678   1.00
H1       1.05356    0.35118    0.47374   1.00
C5       1.03091    0.14620    0.43091   1.00
H1       1.02496    0.22378    0.44195   1.00
H1       1.05592    0.27941    0.47300   1.00
H2       1.03059    0.11401    0.43493   1.00
H2       1.01122    0.15295    0.40604   1.00
N1       1.07076    0.15875    0.42211   1.00
C6       1.10223    0.15356    0.44506   1.00
C6       1.08278    0.17712    0.38952   1.00
C6       1.13475    0.16898    0.42705   1.00
C6       1.12238    0.18396    0.39173   1.00
H3       1.10166    0.13951    0.47337   1.00
H3       1.06399    0.18516    0.36544   1.00
H3       1.16419    0.16924    0.43839   1.00
H3       1.14025    0.19820    0.36999   1.00
C4       0.99993    0.49923    0.27083   1.00
C4       1.00007    0.50077    0.22917   1.00
C3       1.01573    0.46715    0.29154   1.00
C3       1.03215    0.48757    0.20679   1.00
C3       0.98477    0.53025    0.29357   1.00
C3       0.96742    0.51481    0.20813   1.00
C2       1.00123    0.49721    0.35513   1.00
C2       0.99897    0.50254    0.14486   1.00
C3       1.01629    0.46622    0.33285   1.00
C3       1.03156    0.48853    0.16551   1.00
C3       0.98543    0.52917    0.33486   1.00
C3a      0.96670    0.51583    0.16672   1.00
H1       1.02743    0.44242    0.27575   1.00
H1       1.05811    0.47685    0.22125   1.00
H1       1.02856    0.44113    0.34760   1.00
H1       1.05678    0.47832    0.14944   1.00
H1       0.97374    0.55356    0.35118   1.00
C5       0.93091    0.53091    0.14620   1.00
H1       0.94195    0.52496    0.22378   1.00
H1       0.97300    0.55592    0.27941   1.00
H2       0.93493    0.53059    0.11401   1.00
H2       0.90604    0.51122    0.15295   1.00
N1       0.92211    0.57076    0.15875   1.00
C6       0.94506    0.60223    0.15356   1.00
C6       0.88952    0.58278    0.17712   1.00
C6       0.92705    0.63475    0.16898   1.00
C6       0.89173    0.62238    0.18396   1.00
H3       0.97337    0.60166    0.13951   1.00
H3       0.86544    0.56399    0.18516   1.00
H3       0.93839    0.66419    0.16924   1.00
H3       0.86999    0.64025    0.19820   1.00
