data_IRMOF10_SG202_interpen_Ligand10lp_label_u.

_audit_creation_method             'generated by an auxiliary program of Tobunporous'

_symmetry_space_group_name_H-M     'P 1'
_symmetry_Int_Tables_number        1
_symmetry_cell_setting             triclinic

_cell_length_a                    34.2800
_cell_length_b                    34.2800
_cell_length_c                    34.2800
_cell_angle_alpha                 90.0000
_cell_angle_beta                  90.0000
_cell_angle_gamma                 90.0000

loop_
_atom_site_label
_atom_site_fract_x
_atom_site_fract_y
_atom_site_fract_z
_atom_site_occupancy
O1       0.75000    0.75000    0.75000   1.00
Zn1      0.71720    0.78280    0.78280   1.00
Zn1      0.78280    0.71720    0.78280   1.00
Zn1      0.78280    0.78280    0.71720   1.00
Zn1      0.71720    0.71720    0.71720   1.00
O2       0.72650    0.77350    0.83820   1.00
O2       0.72650    0.83820    0.77350   1.00
O2       0.66180    0.77350    0.77350   1.00
O2       0.77350    0.72650    0.83820   1.00
O2       0.83820    0.72650    0.77350   1.00
O2       0.77350    0.66180    0.77350   1.00
O2       0.77350    0.83820    0.72650   1.00
O2       0.83820    0.77350    0.72650   1.00
O2       0.77350    0.77350    0.66180   1.00
O2       0.66180    0.72650    0.72650   1.00
O2       0.72650    0.66180    0.72650   1.00
O2       0.72650    0.72650    0.66180   1.00
C1       0.75000    0.75000    0.85520   1.00
C1       0.75000    0.85520    0.75000   1.00
C1       0.64480    0.75000    0.75000   1.00
C1       0.85520    0.75000    0.75000   1.00
C1       0.75000    0.64480    0.75000   1.00
C1       0.75000    0.75000    0.64480   1.00
O1       0.25000    0.25000    0.75000   1.00
Zn1      0.21720    0.28280    0.78280   1.00
Zn1      0.28280    0.21720    0.78280   1.00
Zn1      0.28280    0.28280    0.71720   1.00
Zn1      0.21720    0.21720    0.71720   1.00
O2       0.22650    0.27350    0.83820   1.00
O2       0.22650    0.33820    0.77350   1.00
O2       0.16180    0.27350    0.77350   1.00
O2       0.27350    0.22650    0.83820   1.00
O2       0.33820    0.22650    0.77350   1.00
O2       0.27350    0.16180    0.77350   1.00
O2       0.27350    0.33820    0.72650   1.00
O2       0.33820    0.27350    0.72650   1.00
O2       0.27350    0.27350    0.66180   1.00
O2       0.16180    0.22650    0.72650   1.00
O2       0.22650    0.16180    0.72650   1.00
O2       0.22650    0.22650    0.66180   1.00
C1       0.25000    0.25000    0.85520   1.00
C1       0.25000    0.35520    0.75000   1.00
C1       0.14480    0.25000    0.75000   1.00
C1       0.35520    0.25000    0.75000   1.00
C1       0.25000    0.14480    0.75000   1.00
C1       0.25000    0.25000    0.64480   1.00
O1       0.25000    0.75000    0.25000   1.00
Zn1      0.21720    0.78280    0.28280   1.00
Zn1      0.28280    0.71720    0.28280   1.00
Zn1      0.28280    0.78280    0.21720   1.00
Zn1      0.21720    0.71720    0.21720   1.00
O2       0.22650    0.77350    0.33820   1.00
O2       0.22650    0.83820    0.27350   1.00
O2       0.16180    0.77350    0.27350   1.00
O2       0.27350    0.72650    0.33820   1.00
O2       0.33820    0.72650    0.27350   1.00
O2       0.27350    0.66180    0.27350   1.00
O2       0.27350    0.83820    0.22650   1.00
O2       0.33820    0.77350    0.22650   1.00
O2       0.27350    0.77350    0.16180   1.00
O2       0.16180    0.72650    0.22650   1.00
O2       0.22650    0.66180    0.22650   1.00
O2       0.22650    0.72650    0.16180   1.00
C1       0.25000    0.75000    0.35520   1.00
C1       0.25000    0.85520    0.25000   1.00
C1       0.14480    0.75000    0.25000   1.00
C1       0.35520    0.75000    0.25000   1.00
C1       0.25000    0.64480    0.25000   1.00
C1       0.25000    0.75000    0.14480   1.00
O1       0.75000    0.25000    0.25000   1.00
Zn1      0.71720    0.28280    0.28280   1.00
Zn1      0.78280    0.21720    0.28280   1.00
Zn1      0.78280    0.28280    0.21720   1.00
Zn1      0.71720    0.21720    0.21720   1.00
O2       0.72650    0.27350    0.33820   1.00
O2       0.72650    0.33820    0.27350   1.00
O2       0.66180    0.27350    0.27350   1.00
O2       0.77350    0.22650    0.33820   1.00
O2       0.83820    0.22650    0.27350   1.00
O2       0.77350    0.16180    0.27350   1.00
O2       0.77350    0.33820    0.22650   1.00
O2       0.83820    0.27350    0.22650   1.00
O2       0.77350    0.27350    0.16180   1.00
O2       0.66180    0.22650    0.22650   1.00
O2       0.72650    0.16180    0.22650   1.00
O2       0.72650    0.22650    0.16180   1.00
C1       0.75000    0.25000    0.35520   1.00
C1       0.75000    0.35520    0.25000   1.00
C1       0.64480    0.25000    0.25000   1.00
C1       0.85520    0.25000    0.25000   1.00
C1       0.75000    0.14480    0.25000   1.00
C1       0.75000    0.25000    0.14480   1.00
O1       0.25000    0.25000    0.25000   1.00
Zn1      0.28280    0.21720    0.21720   1.00
Zn1      0.21720    0.28280    0.21720   1.00
Zn1      0.21720    0.21720    0.28280   1.00
Zn1      0.28280    0.28280    0.28280   1.00
O2       0.27350    0.22650    0.16180   1.00
O2       0.27350    0.16180    0.22650   1.00
O2       0.33820    0.22650    0.22650   1.00
O2       0.22650    0.27350    0.16180   1.00
O2       0.16180    0.27350    0.22650   1.00
O2       0.22650    0.33820    0.22650   1.00
O2       0.22650    0.16180    0.27350   1.00
O2       0.16180    0.22650    0.27350   1.00
O2       0.22650    0.22650    0.33820   1.00
O2       0.33820    0.27350    0.27350   1.00
O2       0.27350    0.33820    0.27350   1.00
O2       0.27350    0.27350    0.33820   1.00
C1       0.25000    0.25000    0.14480   1.00
C1       0.25000    0.14480    0.25000   1.00
C1       0.35520    0.25000    0.25000   1.00
C1       0.14480    0.25000    0.25000   1.00
C1       0.25000    0.35520    0.25000   1.00
C1       0.25000    0.25000    0.35520   1.00
O1       0.75000    0.75000    0.25000   1.00
Zn1      0.78280    0.71720    0.21720   1.00
Zn1      0.71720    0.78280    0.21720   1.00
Zn1      0.71720    0.71720    0.28280   1.00
Zn1      0.78280    0.78280    0.28280   1.00
O2       0.77350    0.72650    0.16180   1.00
O2       0.77350    0.66180    0.22650   1.00
O2       0.83820    0.72650    0.22650   1.00
O2       0.72650    0.77350    0.16180   1.00
O2       0.66180    0.77350    0.22650   1.00
O2       0.72650    0.83820    0.22650   1.00
O2       0.72650    0.66180    0.27350   1.00
O2       0.66180    0.72650    0.27350   1.00
O2       0.72650    0.72650    0.33820   1.00
O2       0.83820    0.77350    0.27350   1.00
O2       0.77350    0.83820    0.27350   1.00
O2       0.77350    0.77350    0.33820   1.00
C1       0.75000    0.75000    0.14480   1.00
C1       0.75000    0.64480    0.25000   1.00
C1       0.85520    0.75000    0.25000   1.00
C1       0.64480    0.75000    0.25000   1.00
C1       0.75000    0.85520    0.25000   1.00
C1       0.75000    0.75000    0.35520   1.00
O1       0.75000    0.25000    0.75000   1.00
Zn1      0.78280    0.21720    0.71720   1.00
Zn1      0.71720    0.28280    0.71720   1.00
Zn1      0.71720    0.21720    0.78280   1.00
Zn1      0.78280    0.28280    0.78280   1.00
O2       0.77350    0.22650    0.66180   1.00
O2       0.77350    0.16180    0.72650   1.00
O2       0.83820    0.22650    0.72650   1.00
O2       0.72650    0.27350    0.66180   1.00
O2       0.66180    0.27350    0.72650   1.00
O2       0.72650    0.33820    0.72650   1.00
O2       0.72650    0.16180    0.77350   1.00
O2       0.66180    0.22650    0.77350   1.00
O2       0.72650    0.22650    0.83820   1.00
O2       0.83820    0.27350    0.77350   1.00
O2       0.77350    0.33820    0.77350   1.00
O2       0.77350    0.27350    0.83820   1.00
C1       0.75000    0.25000    0.64480   1.00
C1       0.75000    0.14480    0.75000   1.00
C1       0.85520    0.25000    0.75000   1.00
C1       0.64480    0.25000    0.75000   1.00
C1       0.75000    0.35520    0.75000   1.00
C1       0.75000    0.25000    0.85520   1.00
O1       0.25000    0.75000    0.75000   1.00
Zn1      0.28280    0.71720    0.71720   1.00
Zn1      0.21720    0.78280    0.71720   1.00
Zn1      0.21720    0.71720    0.78280   1.00
Zn1      0.28280    0.78280    0.78280   1.00
O2       0.27350    0.72650    0.66180   1.00
O2       0.27350    0.66180    0.72650   1.00
O2       0.33820    0.72650    0.72650   1.00
O2       0.22650    0.77350    0.66180   1.00
O2       0.16180    0.77350    0.72650   1.00
O2       0.22650    0.83820    0.72650   1.00
O2       0.22650    0.66180    0.77350   1.00
O2       0.16180    0.72650    0.77350   1.00
O2       0.22650    0.72650    0.83820   1.00
O2       0.33820    0.77350    0.77350   1.00
O2       0.27350    0.83820    0.77350   1.00
O2       0.27350    0.77350    0.83820   1.00
C1       0.25000    0.75000    0.64480   1.00
C1       0.25000    0.64480    0.75000   1.00
C1       0.35520    0.75000    0.75000   1.00
C1       0.14480    0.75000    0.75000   1.00
C1       0.25000    0.85520    0.75000   1.00
C1       0.25000    0.75000    0.85520   1.00
O1       1.00000    1.00000    1.00000   1.00
Zn1      0.96720    1.03280    1.03280   1.00
Zn1      1.03280    0.96720    1.03280   1.00
Zn1      1.03280    1.03280    0.96720   1.00
Zn1      0.96720    0.96720    0.96720   1.00
O2       0.97650    1.02350    1.08820   1.00
O2       0.97650    1.08820    1.02350   1.00
O2       0.91180    1.02350    1.02350   1.00
O2       1.02350    0.97650    1.08820   1.00
O2       1.08820    0.97650    1.02350   1.00
O2       1.02350    0.91180    1.02350   1.00
O2       1.02350    1.08820    0.97650   1.00
O2       1.08820    1.02350    0.97650   1.00
O2       1.02350    1.02350    0.91180   1.00
O2       0.91180    0.97650    0.97650   1.00
O2       0.97650    0.91180    0.97650   1.00
O2       0.97650    0.97650    0.91180   1.00
C1       1.00000    1.00000    1.10520   1.00
C1       1.00000    1.10520    1.00000   1.00
C1       0.89480    1.00000    1.00000   1.00
C1       1.10520    1.00000    1.00000   1.00
C1       1.00000    0.89480    1.00000   1.00
C1       1.00000    1.00000    0.89480   1.00
O1       0.50000    0.50000    1.00000   1.00
Zn1      0.46720    0.53280    1.03280   1.00
Zn1      0.53280    0.46720    1.03280   1.00
Zn1      0.53280    0.53280    0.96720   1.00
Zn1      0.46720    0.46720    0.96720   1.00
O2       0.47650    0.52350    1.08820   1.00
O2       0.47650    0.58820    1.02350   1.00
O2       0.41180    0.52350    1.02350   1.00
O2       0.52350    0.47650    1.08820   1.00
O2       0.58820    0.47650    1.02350   1.00
O2       0.52350    0.41180    1.02350   1.00
O2       0.52350    0.58820    0.97650   1.00
O2       0.58820    0.52350    0.97650   1.00
O2       0.52350    0.52350    0.91180   1.00
O2       0.41180    0.47650    0.97650   1.00
O2       0.47650    0.41180    0.97650   1.00
O2       0.47650    0.47650    0.91180   1.00
C1       0.50000    0.50000    1.10520   1.00
C1       0.50000    0.60520    1.00000   1.00
C1       0.39480    0.50000    1.00000   1.00
C1       0.60520    0.50000    1.00000   1.00
C1       0.50000    0.39480    1.00000   1.00
C1       0.50000    0.50000    0.89480   1.00
O1       0.50000    1.00000    0.50000   1.00
Zn1      0.46720    1.03280    0.53280   1.00
Zn1      0.53280    0.96720    0.53280   1.00
Zn1      0.53280    1.03280    0.46720   1.00
Zn1      0.46720    0.96720    0.46720   1.00
O2       0.47650    1.02350    0.58820   1.00
O2       0.47650    1.08820    0.52350   1.00
O2       0.41180    1.02350    0.52350   1.00
O2       0.52350    0.97650    0.58820   1.00
O2       0.58820    0.97650    0.52350   1.00
O2       0.52350    0.91180    0.52350   1.00
O2       0.52350    1.08820    0.47650   1.00
O2       0.58820    1.02350    0.47650   1.00
O2       0.52350    1.02350    0.41180   1.00
O2       0.41180    0.97650    0.47650   1.00
O2       0.47650    0.91180    0.47650   1.00
O2       0.47650    0.97650    0.41180   1.00
C1       0.50000    1.00000    0.60520   1.00
C1       0.50000    1.10520    0.50000   1.00
C1       0.39480    1.00000    0.50000   1.00
C1       0.60520    1.00000    0.50000   1.00
C1       0.50000    0.89480    0.50000   1.00
C1       0.50000    1.00000    0.39480   1.00
O1       1.00000    0.50000    0.50000   1.00
Zn1      0.96720    0.53280    0.53280   1.00
Zn1      1.03280    0.46720    0.53280   1.00
Zn1      1.03280    0.53280    0.46720   1.00
Zn1      0.96720    0.46720    0.46720   1.00
O2       0.97650    0.52350    0.58820   1.00
O2       0.97650    0.58820    0.52350   1.00
O2       0.91180    0.52350    0.52350   1.00
O2       1.02350    0.47650    0.58820   1.00
O2       1.08820    0.47650    0.52350   1.00
O2       1.02350    0.41180    0.52350   1.00
O2       1.02350    0.58820    0.47650   1.00
O2       1.08820    0.52350    0.47650   1.00
O2       1.02350    0.52350    0.41180   1.00
O2       0.91180    0.47650    0.47650   1.00
O2       0.97650    0.41180    0.47650   1.00
O2       0.97650    0.47650    0.41180   1.00
C1       1.00000    0.50000    0.60520   1.00
C1       1.00000    0.60520    0.50000   1.00
C1       0.89480    0.50000    0.50000   1.00
C1       1.10520    0.50000    0.50000   1.00
C1       1.00000    0.39480    0.50000   1.00
C1       1.00000    0.50000    0.39480   1.00
O1       0.50000    0.50000    0.50000   1.00
Zn1      0.53280    0.46720    0.46720   1.00
Zn1      0.46720    0.53280    0.46720   1.00
Zn1      0.46720    0.46720    0.53280   1.00
Zn1      0.53280    0.53280    0.53280   1.00
O2       0.52350    0.47650    0.41180   1.00
O2       0.52350    0.41180    0.47650   1.00
O2       0.58820    0.47650    0.47650   1.00
O2       0.47650    0.52350    0.41180   1.00
O2       0.41180    0.52350    0.47650   1.00
O2       0.47650    0.58820    0.47650   1.00
O2       0.47650    0.41180    0.52350   1.00
O2       0.41180    0.47650    0.52350   1.00
O2       0.47650    0.47650    0.58820   1.00
O2       0.58820    0.52350    0.52350   1.00
O2       0.52350    0.58820    0.52350   1.00
O2       0.52350    0.52350    0.58820   1.00
C1       0.50000    0.50000    0.39480   1.00
C1       0.50000    0.39480    0.50000   1.00
C1       0.60520    0.50000    0.50000   1.00
C1       0.39480    0.50000    0.50000   1.00
C1       0.50000    0.60520    0.50000   1.00
C1       0.50000    0.50000    0.60520   1.00
O1       1.00000    1.00000    0.50000   1.00
Zn1      1.03280    0.96720    0.46720   1.00
Zn1      0.96720    1.03280    0.46720   1.00
Zn1      0.96720    0.96720    0.53280   1.00
Zn1      1.03280    1.03280    0.53280   1.00
O2       1.02350    0.97650    0.41180   1.00
O2       1.02350    0.91180    0.47650   1.00
O2       1.08820    0.97650    0.47650   1.00
O2       0.97650    1.02350    0.41180   1.00
O2       0.91180    1.02350    0.47650   1.00
O2       0.97650    1.08820    0.47650   1.00
O2       0.97650    0.91180    0.52350   1.00
O2       0.91180    0.97650    0.52350   1.00
O2       0.97650    0.97650    0.58820   1.00
O2       1.08820    1.02350    0.52350   1.00
O2       1.02350    1.08820    0.52350   1.00
O2       1.02350    1.02350    0.58820   1.00
C1       1.00000    1.00000    0.39480   1.00
C1       1.00000    0.89480    0.50000   1.00
C1       1.10520    1.00000    0.50000   1.00
C1       0.89480    1.00000    0.50000   1.00
C1       1.00000    1.10520    0.50000   1.00
C1       1.00000    1.00000    0.60520   1.00
O1       1.00000    0.50000    1.00000   1.00
Zn1      1.03280    0.46720    0.96720   1.00
Zn1      0.96720    0.53280    0.96720   1.00
Zn1      0.96720    0.46720    1.03280   1.00
Zn1      1.03280    0.53280    1.03280   1.00
O2       1.02350    0.47650    0.91180   1.00
O2       1.02350    0.41180    0.97650   1.00
O2       1.08820    0.47650    0.97650   1.00
O2       0.97650    0.52350    0.91180   1.00
O2       0.91180    0.52350    0.97650   1.00
O2       0.97650    0.58820    0.97650   1.00
O2       0.97650    0.41180    1.02350   1.00
O2       0.91180    0.47650    1.02350   1.00
O2       0.97650    0.47650    1.08820   1.00
O2       1.08820    0.52350    1.02350   1.00
O2       1.02350    0.58820    1.02350   1.00
O2       1.02350    0.52350    1.08820   1.00
C1       1.00000    0.50000    0.89480   1.00
C1       1.00000    0.39480    1.00000   1.00
C1       1.10520    0.50000    1.00000   1.00
C1       0.89480    0.50000    1.00000   1.00
C1       1.00000    0.60520    1.00000   1.00
C1       1.00000    0.50000    1.10520   1.00
O1       0.50000    1.00000    1.00000   1.00
Zn1      0.53280    0.96720    0.96720   1.00
Zn1      0.46720    1.03280    0.96720   1.00
Zn1      0.46720    0.96720    1.03280   1.00
Zn1      0.53280    1.03280    1.03280   1.00
O2       0.52350    0.97650    0.91180   1.00
O2       0.52350    0.91180    0.97650   1.00
O2       0.58820    0.97650    0.97650   1.00
O2       0.47650    1.02350    0.91180   1.00
O2       0.41180    1.02350    0.97650   1.00
O2       0.47650    1.08820    0.97650   1.00
O2       0.47650    0.91180    1.02350   1.00
O2       0.41180    0.97650    1.02350   1.00
O2       0.47650    0.97650    1.08820   1.00
O2       0.58820    1.02350    1.02350   1.00
O2       0.52350    1.08820    1.02350   1.00
O2       0.52350    1.02350    1.08820   1.00
C1       0.50000    1.00000    0.89480   1.00
C1       0.50000    0.89480    1.00000   1.00
C1       0.60520    1.00000    1.00000   1.00
C1       0.39480    1.00000    1.00000   1.00
C1       0.50000    1.10520    1.00000   1.00
C1       0.50000    1.00000    1.10520   1.00
C4       0.74969    0.74978    0.97915   1.00
C4       0.75031    0.75022    1.02085   1.00
C3       0.72018    0.76895    0.95751   1.00
C3       0.74050    0.78396    1.04252   1.00
C3       0.77919    0.73075    0.95738   1.00
C3       0.75999    0.71647    1.04259   1.00
C2       0.74991    0.75013    0.89482   1.00
C2       0.74991    0.75013    1.10518   1.00
C3a      0.72015    0.76920    0.91599   1.00
C3       0.74034    0.78384    1.08382   1.00
C3       0.77924    0.73097    0.91611   1.00
C3a      0.75987    0.71623    1.08403   1.00
H1       0.69683    0.78357    0.97294   1.00
H1       0.73322    0.81078    1.02750   1.00
C5       0.68813    0.78977    0.89410   1.00
H1       0.73269    0.81028    1.09933   1.00
H1       0.80251    0.71632    0.90056   1.00
C5       0.77050    0.67933    1.10535   1.00
H1       0.76665    0.68956    1.02747   1.00
H1       0.80293    0.71621    0.97230   1.00
H2       0.80128    0.67185    1.09837   1.00
H2       0.76872    0.68348    1.13747   1.00
N1       0.74454    0.64742    1.09395   1.00
C6       0.74137    0.63167    1.05810   1.00
C6       0.71972    0.62818    1.11757   1.00
C6       0.71406    0.60212    1.05873   1.00
C6       0.70029    0.59990    1.09656   1.00
H3       0.75788    0.64097    1.03281   1.00
H3       0.71581    0.63436    1.14831   1.00
H3       0.70520    0.58414    1.03436   1.00
H3       0.67854    0.57990    1.10758   1.00
H2       0.69375    0.78705    0.86228   1.00
H2       0.65931    0.77617    0.90001   1.00
N1       0.68663    0.83085    0.90523   1.00
C6       0.69232    0.86378    0.88078   1.00
C6       0.67889    0.84638    0.94285   1.00
C6       0.68825    0.89729    0.90277   1.00
C6       0.68002    0.88660    0.94091   1.00
H3       0.69889    0.86253    0.84992   1.00
H3       0.67343    0.82915    0.96876   1.00
H3       0.69109    0.92682    0.89205   1.00
H3       0.67538    0.90636    0.96505   1.00
C4       0.74978    0.97915    0.74969   1.00
C4       0.75022    1.02085    0.75031   1.00
C3       0.76895    0.95751    0.72018   1.00
C3       0.78396    1.04252    0.74050   1.00
C3       0.73075    0.95738    0.77919   1.00
C3       0.71647    1.04259    0.75999   1.00
C2       0.75013    0.89482    0.74991   1.00
C2       0.75013    1.10518    0.74991   1.00
C3a      0.76920    0.91599    0.72015   1.00
C3       0.78384    1.08382    0.74034   1.00
C3       0.73097    0.91611    0.77924   1.00
C3a      0.71623    1.08403    0.75987   1.00
H1       0.78357    0.97294    0.69683   1.00
H1       0.81078    1.02750    0.73322   1.00
C5       0.78977    0.89410    0.68813   1.00
H1       0.81028    1.09933    0.73269   1.00
H1       0.71632    0.90056    0.80251   1.00
C5       0.67933    1.10535    0.77050   1.00
H1       0.68956    1.02747    0.76665   1.00
H1       0.71621    0.97230    0.80293   1.00
H2       0.67185    1.09837    0.80128   1.00
H2       0.68348    1.13747    0.76872   1.00
N1       0.64742    1.09395    0.74454   1.00
C6       0.63167    1.05810    0.74137   1.00
C6       0.62818    1.11757    0.71972   1.00
C6       0.60212    1.05873    0.71406   1.00
C6       0.59990    1.09656    0.70029   1.00
H3       0.64097    1.03281    0.75788   1.00
H3       0.63436    1.14831    0.71581   1.00
H3       0.58414    1.03436    0.70520   1.00
H3       0.57990    1.10758    0.67854   1.00
H2       0.78705    0.86228    0.69375   1.00
H2       0.77617    0.90001    0.65931   1.00
N1       0.83085    0.90523    0.68663   1.00
C6       0.86378    0.88078    0.69232   1.00
C6       0.84638    0.94285    0.67889   1.00
C6       0.89729    0.90277    0.68825   1.00
C6       0.88660    0.94091    0.68002   1.00
H3       0.86253    0.84992    0.69889   1.00
H3       0.82915    0.96876    0.67343   1.00
H3       0.92682    0.89205    0.69109   1.00
H3       0.90636    0.96505    0.67538   1.00
C4       0.52085    0.74969    0.75022   1.00
C4       0.47915    0.75031    0.74978   1.00
C3       0.54249    0.72018    0.73105   1.00
C3       0.45748    0.74050    0.71604   1.00
C3       0.54262    0.77919    0.76925   1.00
C3       0.45741    0.75999    0.78353   1.00
C2       0.60518    0.74991    0.74987   1.00
C2       0.39482    0.74991    0.74987   1.00
C3a      0.58401    0.72015    0.73080   1.00
C3       0.41618    0.74034    0.71616   1.00
C3       0.58389    0.77924    0.76903   1.00
C3a      0.41597    0.75987    0.78377   1.00
H1       0.52706    0.69683    0.71643   1.00
H1       0.47250    0.73322    0.68922   1.00
C5       0.60590    0.68813    0.71023   1.00
H1       0.40067    0.73269    0.68972   1.00
H1       0.59944    0.80251    0.78368   1.00
C5       0.39465    0.77050    0.82067   1.00
H1       0.47253    0.76665    0.81044   1.00
H1       0.52770    0.80293    0.78379   1.00
H2       0.40163    0.80128    0.82815   1.00
H2       0.36253    0.76872    0.81652   1.00
N1       0.40605    0.74454    0.85258   1.00
C6       0.44190    0.74137    0.86833   1.00
C6       0.38243    0.71972    0.87182   1.00
C6       0.44127    0.71406    0.89788   1.00
C6       0.40344    0.70029    0.90010   1.00
H3       0.46719    0.75788    0.85903   1.00
H3       0.35169    0.71581    0.86564   1.00
H3       0.46564    0.70520    0.91586   1.00
H3       0.39242    0.67854    0.92010   1.00
H2       0.63772    0.69375    0.71295   1.00
H2       0.59999    0.65931    0.72383   1.00
N1       0.59477    0.68663    0.66915   1.00
C6       0.61922    0.69232    0.63622   1.00
C6       0.55715    0.67889    0.65362   1.00
C6       0.59723    0.68825    0.60271   1.00
C6       0.55909    0.68002    0.61340   1.00
H3       0.65008    0.69889    0.63747   1.00
H3       0.53124    0.67343    0.67085   1.00
H3       0.60795    0.69109    0.57318   1.00
H3       0.53495    0.67538    0.59364   1.00
C4       0.97915    0.74969    0.74978   1.00
C4       1.02085    0.75031    0.75022   1.00
C3       0.95751    0.72018    0.76895   1.00
C3       1.04252    0.74050    0.78396   1.00
C3       0.95738    0.77919    0.73075   1.00
C3       1.04259    0.75999    0.71647   1.00
C2       0.89482    0.74991    0.75013   1.00
C2       1.10518    0.74991    0.75013   1.00
C3a      0.91599    0.72015    0.76920   1.00
C3       1.08382    0.74034    0.78384   1.00
C3       0.91611    0.77924    0.73097   1.00
C3a      1.08403    0.75987    0.71623   1.00
H1       0.97294    0.69683    0.78357   1.00
H1       1.02750    0.73322    0.81078   1.00
C5       0.89410    0.68813    0.78977   1.00
H1       1.09933    0.73269    0.81028   1.00
H1       0.90056    0.80251    0.71632   1.00
C5       1.10535    0.77050    0.67933   1.00
H1       1.02747    0.76665    0.68956   1.00
H1       0.97230    0.80293    0.71621   1.00
H2       1.09837    0.80128    0.67185   1.00
H2       1.13747    0.76872    0.68348   1.00
N1       1.09395    0.74454    0.64742   1.00
C6       1.05810    0.74137    0.63167   1.00
C6       1.11757    0.71972    0.62818   1.00
C6       1.05873    0.71406    0.60212   1.00
C6       1.09656    0.70029    0.59990   1.00
H3       1.03281    0.75788    0.64097   1.00
H3       1.14831    0.71581    0.63436   1.00
H3       1.03436    0.70520    0.58414   1.00
H3       1.10758    0.67854    0.57990   1.00
H2       0.86228    0.69375    0.78705   1.00
H2       0.90001    0.65931    0.77617   1.00
N1       0.90523    0.68663    0.83085   1.00
C6       0.88078    0.69232    0.86378   1.00
C6       0.94285    0.67889    0.84638   1.00
C6       0.90277    0.68825    0.89729   1.00
C6       0.94091    0.68002    0.88660   1.00
H3       0.84992    0.69889    0.86253   1.00
H3       0.96876    0.67343    0.82915   1.00
H3       0.89205    0.69109    0.92682   1.00
H3       0.96505    0.67538    0.90636   1.00
C4       0.75022    0.52085    0.74969   1.00
C4       0.74978    0.47915    0.75031   1.00
C3       0.73105    0.54249    0.72018   1.00
C3       0.71604    0.45748    0.74050   1.00
C3       0.76925    0.54262    0.77919   1.00
C3       0.78353    0.45741    0.75999   1.00
C2       0.74987    0.60518    0.74991   1.00
C2       0.74987    0.39482    0.74991   1.00
C3a      0.73080    0.58401    0.72015   1.00
C3       0.71616    0.41618    0.74034   1.00
C3       0.76903    0.58389    0.77924   1.00
C3a      0.78377    0.41597    0.75987   1.00
H1       0.71643    0.52706    0.69683   1.00
H1       0.68922    0.47250    0.73322   1.00
C5       0.71023    0.60590    0.68813   1.00
H1       0.68972    0.40067    0.73269   1.00
H1       0.78368    0.59944    0.80251   1.00
C5       0.82067    0.39465    0.77050   1.00
H1       0.81044    0.47253    0.76665   1.00
H1       0.78379    0.52770    0.80293   1.00
H2       0.82815    0.40163    0.80128   1.00
H2       0.81652    0.36253    0.76872   1.00
N1       0.85258    0.40605    0.74454   1.00
C6       0.86833    0.44190    0.74137   1.00
C6       0.87182    0.38243    0.71972   1.00
C6       0.89788    0.44127    0.71406   1.00
C6       0.90010    0.40344    0.70029   1.00
H3       0.85903    0.46719    0.75788   1.00
H3       0.86564    0.35169    0.71581   1.00
H3       0.91586    0.46564    0.70520   1.00
H3       0.92010    0.39242    0.67854   1.00
H2       0.71295    0.63772    0.69375   1.00
H2       0.72383    0.59999    0.65931   1.00
N1       0.66915    0.59477    0.68663   1.00
C6       0.63622    0.61922    0.69232   1.00
C6       0.65362    0.55715    0.67889   1.00
C6       0.60271    0.59723    0.68825   1.00
C6       0.61340    0.55909    0.68002   1.00
H3       0.63747    0.65008    0.69889   1.00
H3       0.67085    0.53124    0.67343   1.00
H3       0.57318    0.60795    0.69109   1.00
H3       0.59364    0.53495    0.67538   1.00
C4       0.74969    0.75022    0.52085   1.00
C4       0.75031    0.74978    0.47915   1.00
C3       0.72018    0.73105    0.54249   1.00
C3       0.74050    0.71604    0.45748   1.00
C3       0.77919    0.76925    0.54262   1.00
C3       0.75999    0.78353    0.45741   1.00
C2       0.74991    0.74987    0.60518   1.00
C2       0.74991    0.74987    0.39482   1.00
C3a      0.72015    0.73080    0.58401   1.00
C3       0.74034    0.71616    0.41618   1.00
C3       0.77924    0.76903    0.58389   1.00
C3a      0.75987    0.78377    0.41597   1.00
H1       0.69683    0.71643    0.52706   1.00
H1       0.73322    0.68922    0.47250   1.00
C5       0.68813    0.71023    0.60590   1.00
H1       0.73269    0.68972    0.40067   1.00
H1       0.80251    0.78368    0.59944   1.00
C5       0.77050    0.82067    0.39465   1.00
H1       0.76665    0.81044    0.47253   1.00
H1       0.80293    0.78379    0.52770   1.00
H2       0.80128    0.82815    0.40163   1.00
H2       0.76872    0.81652    0.36253   1.00
N1       0.74454    0.85258    0.40605   1.00
C6       0.74137    0.86833    0.44190   1.00
C6       0.71972    0.87182    0.38243   1.00
C6       0.71406    0.89788    0.44127   1.00
C6       0.70029    0.90010    0.40344   1.00
H3       0.75788    0.85903    0.46719   1.00
H3       0.71581    0.86564    0.35169   1.00
H3       0.70520    0.91586    0.46564   1.00
H3       0.67854    0.92010    0.39242   1.00
H2       0.69375    0.71295    0.63772   1.00
H2       0.65931    0.72383    0.59999   1.00
N1       0.68663    0.66915    0.59477   1.00
C6       0.69232    0.63622    0.61922   1.00
C6       0.67889    0.65362    0.55715   1.00
C6       0.68825    0.60271    0.59723   1.00
C6       0.68002    0.61340    0.55909   1.00
H3       0.69889    0.63747    0.65008   1.00
H3       0.67343    0.67085    0.53124   1.00
H3       0.69109    0.57318    0.60795   1.00
H3       0.67538    0.59364    0.53495   1.00
C4       0.24969    0.24978    0.97915   1.00
C4       0.25031    0.25022    1.02085   1.00
C3       0.22018    0.26895    0.95751   1.00
C3       0.24050    0.28396    1.04252   1.00
C3       0.27919    0.23075    0.95738   1.00
C3       0.25999    0.21647    1.04259   1.00
C2       0.24991    0.25013    0.89482   1.00
C2       0.24991    0.25013    1.10518   1.00
C3a      0.22015    0.26920    0.91599   1.00
C3       0.24034    0.28384    1.08382   1.00
C3       0.27924    0.23097    0.91611   1.00
C3a      0.25987    0.21623    1.08403   1.00
H1       0.19683    0.28357    0.97294   1.00
H1       0.23322    0.31078    1.02750   1.00
C5       0.18813    0.28977    0.89410   1.00
H1       0.23269    0.31028    1.09933   1.00
H1       0.30251    0.21632    0.90056   1.00
C5       0.27050    0.17933    1.10535   1.00
H1       0.26665    0.18956    1.02747   1.00
H1       0.30293    0.21621    0.97230   1.00
H2       0.30128    0.17185    1.09837   1.00
H2       0.26872    0.18348    1.13747   1.00
N1       0.24454    0.14742    1.09395   1.00
C6       0.24137    0.13167    1.05810   1.00
C6       0.21972    0.12818    1.11757   1.00
C6       0.21406    0.10212    1.05873   1.00
C6       0.20029    0.09990    1.09656   1.00
H3       0.25788    0.14097    1.03281   1.00
H3       0.21581    0.13436    1.14831   1.00
H3       0.20520    0.08414    1.03436   1.00
H3       0.17854    0.07990    1.10758   1.00
H2       0.19375    0.28705    0.86228   1.00
H2       0.15931    0.27617    0.90001   1.00
N1       0.18663    0.33085    0.90523   1.00
C6       0.19232    0.36378    0.88078   1.00
C6       0.17889    0.34638    0.94285   1.00
C6       0.18825    0.39729    0.90277   1.00
C6       0.18002    0.38660    0.94091   1.00
H3       0.19889    0.36253    0.84992   1.00
H3       0.17343    0.32915    0.96876   1.00
H3       0.19109    0.42682    0.89205   1.00
H3       0.17538    0.40636    0.96505   1.00
C4       0.24978    0.47915    0.74969   1.00
C4       0.25022    0.52085    0.75031   1.00
C3       0.26895    0.45751    0.72018   1.00
C3       0.28396    0.54252    0.74050   1.00
C3       0.23075    0.45738    0.77919   1.00
C3       0.21647    0.54259    0.75999   1.00
C2       0.25013    0.39482    0.74991   1.00
C2       0.25013    0.60518    0.74991   1.00
C3a      0.26920    0.41599    0.72015   1.00
C3       0.28384    0.58382    0.74034   1.00
C3       0.23097    0.41611    0.77924   1.00
C3a      0.21623    0.58403    0.75987   1.00
H1       0.28357    0.47294    0.69683   1.00
H1       0.31078    0.52750    0.73322   1.00
C5       0.28977    0.39410    0.68813   1.00
H1       0.31028    0.59933    0.73269   1.00
H1       0.21632    0.40056    0.80251   1.00
C5       0.17933    0.60535    0.77050   1.00
H1       0.18956    0.52747    0.76665   1.00
H1       0.21621    0.47230    0.80293   1.00
H2       0.17185    0.59837    0.80128   1.00
H2       0.18348    0.63747    0.76872   1.00
N1       0.14742    0.59395    0.74454   1.00
C6       0.13167    0.55810    0.74137   1.00
C6       0.12818    0.61757    0.71972   1.00
C6       0.10212    0.55873    0.71406   1.00
C6       0.09990    0.59656    0.70029   1.00
H3       0.14097    0.53281    0.75788   1.00
H3       0.13436    0.64831    0.71581   1.00
H3       0.08414    0.53436    0.70520   1.00
H3       0.07990    0.60758    0.67854   1.00
H2       0.28705    0.36228    0.69375   1.00
H2       0.27617    0.40001    0.65931   1.00
N1       0.33085    0.40523    0.68663   1.00
C6       0.36378    0.38078    0.69232   1.00
C6       0.34638    0.44285    0.67889   1.00
C6       0.39729    0.40277    0.68825   1.00
C6       0.38660    0.44091    0.68002   1.00
H3       0.36253    0.34992    0.69889   1.00
H3       0.32915    0.46876    0.67343   1.00
H3       0.42682    0.39205    0.69109   1.00
H3       0.40636    0.46505    0.67538   1.00
C4       0.02085    0.24969    0.75022   1.00
C4       -0.02085   0.25031    0.74978   1.00
C3       0.04249    0.22018    0.73105   1.00
C3       -0.04252   0.24050    0.71604   1.00
C3       0.04262    0.27919    0.76925   1.00
C3       -0.04259   0.25999    0.78353   1.00
C2       0.10518    0.24991    0.74987   1.00
C2       -0.10518   0.24991    0.74987   1.00
C3a      0.08401    0.22015    0.73080   1.00
C3       -0.08382   0.24034    0.71616   1.00
C3       0.08389    0.27924    0.76903   1.00
C3a      -0.08403   0.25987    0.78377   1.00
H1       0.02706    0.19683    0.71643   1.00
H1       -0.02750   0.23322    0.68922   1.00
C5       0.10590    0.18813    0.71023   1.00
H1       -0.09933   0.23269    0.68972   1.00
H1       0.09944    0.30251    0.78368   1.00
C5       -0.10535   0.27050    0.82067   1.00
H1       -0.02747   0.26665    0.81044   1.00
H1       0.02770    0.30293    0.78379   1.00
H2       -0.09837   0.30128    0.82815   1.00
H2       -0.13747   0.26872    0.81652   1.00
N1       -0.09395   0.24454    0.85258   1.00
C6       -0.05810   0.24137    0.86833   1.00
C6       -0.11757   0.21972    0.87182   1.00
C6       -0.05873   0.21406    0.89788   1.00
C6       -0.09656   0.20029    0.90010   1.00
H3       -0.03281   0.25788    0.85903   1.00
H3       -0.14831   0.21581    0.86564   1.00
H3       -0.03436   0.20520    0.91586   1.00
H3       -0.10758   0.17854    0.92010   1.00
H2       0.13772    0.19375    0.71295   1.00
H2       0.09999    0.15931    0.72383   1.00
N1       0.09477    0.18663    0.66915   1.00
C6       0.11922    0.19232    0.63622   1.00
C6       0.05715    0.17889    0.65362   1.00
C6       0.09723    0.18825    0.60271   1.00
C6       0.05909    0.18002    0.61340   1.00
H3       0.15008    0.19889    0.63747   1.00
H3       0.03124    0.17343    0.67085   1.00
H3       0.10795    0.19109    0.57318   1.00
H3       0.03495    0.17538    0.59364   1.00
C4       0.47915    0.24969    0.74978   1.00
C4       0.52085    0.25031    0.75022   1.00
C3       0.45751    0.22018    0.76895   1.00
C3       0.54252    0.24050    0.78396   1.00
C3       0.45738    0.27919    0.73075   1.00
C3       0.54259    0.25999    0.71647   1.00
C2       0.39482    0.24991    0.75013   1.00
C2       0.60518    0.24991    0.75013   1.00
C3a      0.41599    0.22015    0.76920   1.00
C3       0.58382    0.24034    0.78384   1.00
C3       0.41611    0.27924    0.73097   1.00
C3a      0.58403    0.25987    0.71623   1.00
H1       0.47294    0.19683    0.78357   1.00
H1       0.52750    0.23322    0.81078   1.00
C5       0.39410    0.18813    0.78977   1.00
H1       0.59933    0.23269    0.81028   1.00
H1       0.40056    0.30251    0.71632   1.00
C5       0.60535    0.27050    0.67933   1.00
H1       0.52747    0.26665    0.68956   1.00
H1       0.47230    0.30293    0.71621   1.00
H2       0.59837    0.30128    0.67185   1.00
H2       0.63747    0.26872    0.68348   1.00
N1       0.59395    0.24454    0.64742   1.00
C6       0.55810    0.24137    0.63167   1.00
C6       0.61757    0.21972    0.62818   1.00
C6       0.55873    0.21406    0.60212   1.00
C6       0.59656    0.20029    0.59990   1.00
H3       0.53281    0.25788    0.64097   1.00
H3       0.64831    0.21581    0.63436   1.00
H3       0.53436    0.20520    0.58414   1.00
H3       0.60758    0.17854    0.57990   1.00
H2       0.36228    0.19375    0.78705   1.00
H2       0.40001    0.15931    0.77617   1.00
N1       0.40523    0.18663    0.83085   1.00
C6       0.38078    0.19232    0.86378   1.00
C6       0.44285    0.17889    0.84638   1.00
C6       0.40277    0.18825    0.89729   1.00
C6       0.44091    0.18002    0.88660   1.00
H3       0.34992    0.19889    0.86253   1.00
H3       0.46876    0.17343    0.82915   1.00
H3       0.39205    0.19109    0.92682   1.00
H3       0.46505    0.17538    0.90636   1.00
C4       0.25022    0.02085    0.74969   1.00
C4       0.24978    -0.02085   0.75031   1.00
C3       0.23105    0.04249    0.72018   1.00
C3       0.21604    -0.04252   0.74050   1.00
C3       0.26925    0.04262    0.77919   1.00
C3       0.28353    -0.04259   0.75999   1.00
C2       0.24987    0.10518    0.74991   1.00
C2       0.24987    -0.10518   0.74991   1.00
C3a      0.23080    0.08401    0.72015   1.00
C3       0.21616    -0.08382   0.74034   1.00
C3       0.26903    0.08389    0.77924   1.00
C3a      0.28377    -0.08403   0.75987   1.00
H1       0.21643    0.02706    0.69683   1.00
H1       0.18922    -0.02750   0.73322   1.00
C5       0.21023    0.10590    0.68813   1.00
H1       0.18972    -0.09933   0.73269   1.00
H1       0.28368    0.09944    0.80251   1.00
C5       0.32067    -0.10535   0.77050   1.00
H1       0.31044    -0.02747   0.76665   1.00
H1       0.28379    0.02770    0.80293   1.00
H2       0.32815    -0.09837   0.80128   1.00
H2       0.31652    -0.13747   0.76872   1.00
N1       0.35258    -0.09395   0.74454   1.00
C6       0.36833    -0.05810   0.74137   1.00
C6       0.37182    -0.11757   0.71972   1.00
C6       0.39788    -0.05873   0.71406   1.00
C6       0.40010    -0.09656   0.70029   1.00
H3       0.35903    -0.03281   0.75788   1.00
H3       0.36564    -0.14831   0.71581   1.00
H3       0.41586    -0.03436   0.70520   1.00
H3       0.42010    -0.10758   0.67854   1.00
H2       0.21295    0.13772    0.69375   1.00
H2       0.22383    0.09999    0.65931   1.00
N1       0.16915    0.09477    0.68663   1.00
C6       0.13622    0.11922    0.69232   1.00
C6       0.15362    0.05715    0.67889   1.00
C6       0.10271    0.09723    0.68825   1.00
C6       0.11340    0.05909    0.68002   1.00
H3       0.13747    0.15008    0.69889   1.00
H3       0.17085    0.03124    0.67343   1.00
H3       0.07318    0.10795    0.69109   1.00
H3       0.09364    0.03495    0.67538   1.00
C4       0.24969    0.25022    0.52085   1.00
C4       0.25031    0.24978    0.47915   1.00
C3       0.22018    0.23105    0.54249   1.00
C3       0.24050    0.21604    0.45748   1.00
C3       0.27919    0.26925    0.54262   1.00
C3       0.25999    0.28353    0.45741   1.00
C2       0.24991    0.24987    0.60518   1.00
C2       0.24991    0.24987    0.39482   1.00
C3a      0.22015    0.23080    0.58401   1.00
C3       0.24034    0.21616    0.41618   1.00
C3       0.27924    0.26903    0.58389   1.00
C3a      0.25987    0.28377    0.41597   1.00
H1       0.19683    0.21643    0.52706   1.00
H1       0.23322    0.18922    0.47250   1.00
C5       0.18813    0.21023    0.60590   1.00
H1       0.23269    0.18972    0.40067   1.00
H1       0.30251    0.28368    0.59944   1.00
C5       0.27050    0.32067    0.39465   1.00
H1       0.26665    0.31044    0.47253   1.00
H1       0.30293    0.28379    0.52770   1.00
H2       0.30128    0.32815    0.40163   1.00
H2       0.26872    0.31652    0.36253   1.00
N1       0.24454    0.35258    0.40605   1.00
C6       0.24137    0.36833    0.44190   1.00
C6       0.21972    0.37182    0.38243   1.00
C6       0.21406    0.39788    0.44127   1.00
C6       0.20029    0.40010    0.40344   1.00
H3       0.25788    0.35903    0.46719   1.00
H3       0.21581    0.36564    0.35169   1.00
H3       0.20520    0.41586    0.46564   1.00
H3       0.17854    0.42010    0.39242   1.00
H2       0.19375    0.21295    0.63772   1.00
H2       0.15931    0.22383    0.59999   1.00
N1       0.18663    0.16915    0.59477   1.00
C6       0.19232    0.13622    0.61922   1.00
C6       0.17889    0.15362    0.55715   1.00
C6       0.18825    0.10271    0.59723   1.00
C6       0.18002    0.11340    0.55909   1.00
H3       0.19889    0.13747    0.65008   1.00
H3       0.17343    0.17085    0.53124   1.00
H3       0.19109    0.07318    0.60795   1.00
H3       0.17538    0.09364    0.53495   1.00
C4       0.24969    0.74978    0.47915   1.00
C4       0.25031    0.75022    0.52085   1.00
C3       0.22018    0.76895    0.45751   1.00
C3       0.24050    0.78396    0.54252   1.00
C3       0.27919    0.73075    0.45738   1.00
C3       0.25999    0.71647    0.54259   1.00
C2       0.24991    0.75013    0.39482   1.00
C2       0.24991    0.75013    0.60518   1.00
C3a      0.22015    0.76920    0.41599   1.00
C3       0.24034    0.78384    0.58382   1.00
C3       0.27924    0.73097    0.41611   1.00
C3a      0.25987    0.71623    0.58403   1.00
H1       0.19683    0.78357    0.47294   1.00
H1       0.23322    0.81078    0.52750   1.00
C5       0.18813    0.78977    0.39410   1.00
H1       0.23269    0.81028    0.59933   1.00
H1       0.30251    0.71632    0.40056   1.00
C5       0.27050    0.67933    0.60535   1.00
H1       0.26665    0.68956    0.52747   1.00
H1       0.30293    0.71621    0.47230   1.00
H2       0.30128    0.67185    0.59837   1.00
H2       0.26872    0.68348    0.63747   1.00
N1       0.24454    0.64742    0.59395   1.00
C6       0.24137    0.63167    0.55810   1.00
C6       0.21972    0.62818    0.61757   1.00
C6       0.21406    0.60212    0.55873   1.00
C6       0.20029    0.59990    0.59656   1.00
H3       0.25788    0.64097    0.53281   1.00
H3       0.21581    0.63436    0.64831   1.00
H3       0.20520    0.58414    0.53436   1.00
H3       0.17854    0.57990    0.60758   1.00
H2       0.19375    0.78705    0.36228   1.00
H2       0.15931    0.77617    0.40001   1.00
N1       0.18663    0.83085    0.40523   1.00
C6       0.19232    0.86378    0.38078   1.00
C6       0.17889    0.84638    0.44285   1.00
C6       0.18825    0.89729    0.40277   1.00
C6       0.18002    0.88660    0.44091   1.00
H3       0.19889    0.86253    0.34992   1.00
H3       0.17343    0.82915    0.46876   1.00
H3       0.19109    0.92682    0.39205   1.00
H3       0.17538    0.90636    0.46505   1.00
C4       0.24978    0.97915    0.24969   1.00
C4       0.25022    1.02085    0.25031   1.00
C3       0.26895    0.95751    0.22018   1.00
C3       0.28396    1.04252    0.24050   1.00
C3       0.23075    0.95738    0.27919   1.00
C3       0.21647    1.04259    0.25999   1.00
C2       0.25013    0.89482    0.24991   1.00
C2       0.25013    1.10518    0.24991   1.00
C3a      0.26920    0.91599    0.22015   1.00
C3       0.28384    1.08382    0.24034   1.00
C3       0.23097    0.91611    0.27924   1.00
C3a      0.21623    1.08403    0.25987   1.00
H1       0.28357    0.97294    0.19683   1.00
H1       0.31078    1.02750    0.23322   1.00
C5       0.28977    0.89410    0.18813   1.00
H1       0.31028    1.09933    0.23269   1.00
H1       0.21632    0.90056    0.30251   1.00
C5       0.17933    1.10535    0.27050   1.00
H1       0.18956    1.02747    0.26665   1.00
H1       0.21621    0.97230    0.30293   1.00
H2       0.17185    1.09837    0.30128   1.00
H2       0.18348    1.13747    0.26872   1.00
N1       0.14742    1.09395    0.24454   1.00
C6       0.13167    1.05810    0.24137   1.00
C6       0.12818    1.11757    0.21972   1.00
C6       0.10212    1.05873    0.21406   1.00
C6       0.09990    1.09656    0.20029   1.00
H3       0.14097    1.03281    0.25788   1.00
H3       0.13436    1.14831    0.21581   1.00
H3       0.08414    1.03436    0.20520   1.00
H3       0.07990    1.10758    0.17854   1.00
H2       0.28705    0.86228    0.19375   1.00
H2       0.27617    0.90001    0.15931   1.00
N1       0.33085    0.90523    0.18663   1.00
C6       0.36378    0.88078    0.19232   1.00
C6       0.34638    0.94285    0.17889   1.00
C6       0.39729    0.90277    0.18825   1.00
C6       0.38660    0.94091    0.18002   1.00
H3       0.36253    0.84992    0.19889   1.00
H3       0.32915    0.96876    0.17343   1.00
H3       0.42682    0.89205    0.19109   1.00
H3       0.40636    0.96505    0.17538   1.00
C4       0.02085    0.74969    0.25022   1.00
C4       -0.02085   0.75031    0.24978   1.00
C3       0.04249    0.72018    0.23105   1.00
C3       -0.04252   0.74050    0.21604   1.00
C3       0.04262    0.77919    0.26925   1.00
C3       -0.04259   0.75999    0.28353   1.00
C2       0.10518    0.74991    0.24987   1.00
C2       -0.10518   0.74991    0.24987   1.00
C3a      0.08401    0.72015    0.23080   1.00
C3       -0.08382   0.74034    0.21616   1.00
C3       0.08389    0.77924    0.26903   1.00
C3a      -0.08403   0.75987    0.28377   1.00
H1       0.02706    0.69683    0.21643   1.00
H1       -0.02750   0.73322    0.18922   1.00
C5       0.10590    0.68813    0.21023   1.00
H1       -0.09933   0.73269    0.18972   1.00
H1       0.09944    0.80251    0.28368   1.00
C5       -0.10535   0.77050    0.32067   1.00
H1       -0.02747   0.76665    0.31044   1.00
H1       0.02770    0.80293    0.28379   1.00
H2       -0.09837   0.80128    0.32815   1.00
H2       -0.13747   0.76872    0.31652   1.00
N1       -0.09395   0.74454    0.35258   1.00
C6       -0.05810   0.74137    0.36833   1.00
C6       -0.11757   0.71972    0.37182   1.00
C6       -0.05873   0.71406    0.39788   1.00
C6       -0.09656   0.70029    0.40010   1.00
H3       -0.03281   0.75788    0.35903   1.00
H3       -0.14831   0.71581    0.36564   1.00
H3       -0.03436   0.70520    0.41586   1.00
H3       -0.10758   0.67854    0.42010   1.00
H2       0.13772    0.69375    0.21295   1.00
H2       0.09999    0.65931    0.22383   1.00
N1       0.09477    0.68663    0.16915   1.00
C6       0.11922    0.69232    0.13622   1.00
C6       0.05715    0.67889    0.15362   1.00
C6       0.09723    0.68825    0.10271   1.00
C6       0.05909    0.68002    0.11340   1.00
H3       0.15008    0.69889    0.13747   1.00
H3       0.03124    0.67343    0.17085   1.00
H3       0.10795    0.69109    0.07318   1.00
H3       0.03495    0.67538    0.09364   1.00
C4       0.47915    0.74969    0.24978   1.00
C4       0.52085    0.75031    0.25022   1.00
C3       0.45751    0.72018    0.26895   1.00
C3       0.54252    0.74050    0.28396   1.00
C3       0.45738    0.77919    0.23075   1.00
C3       0.54259    0.75999    0.21647   1.00
C2       0.39482    0.74991    0.25013   1.00
C2       0.60518    0.74991    0.25013   1.00
C3a      0.41599    0.72015    0.26920   1.00
C3       0.58382    0.74034    0.28384   1.00
C3       0.41611    0.77924    0.23097   1.00
C3a      0.58403    0.75987    0.21623   1.00
H1       0.47294    0.69683    0.28357   1.00
H1       0.52750    0.73322    0.31078   1.00
C5       0.39410    0.68813    0.28977   1.00
H1       0.59933    0.73269    0.31028   1.00
H1       0.40056    0.80251    0.21632   1.00
C5       0.60535    0.77050    0.17933   1.00
H1       0.52747    0.76665    0.18956   1.00
H1       0.47230    0.80293    0.21621   1.00
H2       0.59837    0.80128    0.17185   1.00
H2       0.63747    0.76872    0.18348   1.00
N1       0.59395    0.74454    0.14742   1.00
C6       0.55810    0.74137    0.13167   1.00
C6       0.61757    0.71972    0.12818   1.00
C6       0.55873    0.71406    0.10212   1.00
C6       0.59656    0.70029    0.09990   1.00
H3       0.53281    0.75788    0.14097   1.00
H3       0.64831    0.71581    0.13436   1.00
H3       0.53436    0.70520    0.08414   1.00
H3       0.60758    0.67854    0.07990   1.00
H2       0.36228    0.69375    0.28705   1.00
H2       0.40001    0.65931    0.27617   1.00
N1       0.40523    0.68663    0.33085   1.00
C6       0.38078    0.69232    0.36378   1.00
C6       0.44285    0.67889    0.34638   1.00
C6       0.40277    0.68825    0.39729   1.00
C6       0.44091    0.68002    0.38660   1.00
H3       0.34992    0.69889    0.36253   1.00
H3       0.46876    0.67343    0.32915   1.00
H3       0.39205    0.69109    0.42682   1.00
H3       0.46505    0.67538    0.40636   1.00
C4       0.25022    0.52085    0.24969   1.00
C4       0.24978    0.47915    0.25031   1.00
C3       0.23105    0.54249    0.22018   1.00
C3       0.21604    0.45748    0.24050   1.00
C3       0.26925    0.54262    0.27919   1.00
C3       0.28353    0.45741    0.25999   1.00
C2       0.24987    0.60518    0.24991   1.00
C2       0.24987    0.39482    0.24991   1.00
C3a      0.23080    0.58401    0.22015   1.00
C3       0.21616    0.41618    0.24034   1.00
C3       0.26903    0.58389    0.27924   1.00
C3a      0.28377    0.41597    0.25987   1.00
H1       0.21643    0.52706    0.19683   1.00
H1       0.18922    0.47250    0.23322   1.00
C5       0.21023    0.60590    0.18813   1.00
H1       0.18972    0.40067    0.23269   1.00
H1       0.28368    0.59944    0.30251   1.00
C5       0.32067    0.39465    0.27050   1.00
H1       0.31044    0.47253    0.26665   1.00
H1       0.28379    0.52770    0.30293   1.00
H2       0.32815    0.40163    0.30128   1.00
H2       0.31652    0.36253    0.26872   1.00
N1       0.35258    0.40605    0.24454   1.00
C6       0.36833    0.44190    0.24137   1.00
C6       0.37182    0.38243    0.21972   1.00
C6       0.39788    0.44127    0.21406   1.00
C6       0.40010    0.40344    0.20029   1.00
H3       0.35903    0.46719    0.25788   1.00
H3       0.36564    0.35169    0.21581   1.00
H3       0.41586    0.46564    0.20520   1.00
H3       0.42010    0.39242    0.17854   1.00
H2       0.21295    0.63772    0.19375   1.00
H2       0.22383    0.59999    0.15931   1.00
N1       0.16915    0.59477    0.18663   1.00
C6       0.13622    0.61922    0.19232   1.00
C6       0.15362    0.55715    0.17889   1.00
C6       0.10271    0.59723    0.18825   1.00
C6       0.11340    0.55909    0.18002   1.00
H3       0.13747    0.65008    0.19889   1.00
H3       0.17085    0.53124    0.17343   1.00
H3       0.07318    0.60795    0.19109   1.00
H3       0.09364    0.53495    0.17538   1.00
C4       0.24969    0.75022    0.02085   1.00
C4       0.25031    0.74978    -0.02085   1.00
C3       0.22018    0.73105    0.04249   1.00
C3       0.24050    0.71604    -0.04252   1.00
C3       0.27919    0.76925    0.04262   1.00
C3       0.25999    0.78353    -0.04259   1.00
C2       0.24991    0.74987    0.10518   1.00
C2       0.24991    0.74987    -0.10518   1.00
C3a      0.22015    0.73080    0.08401   1.00
C3       0.24034    0.71616    -0.08382   1.00
C3       0.27924    0.76903    0.08389   1.00
C3a      0.25987    0.78377    -0.08403   1.00
H1       0.19683    0.71643    0.02706   1.00
H1       0.23322    0.68922    -0.02750   1.00
C5       0.18813    0.71023    0.10590   1.00
H1       0.23269    0.68972    -0.09933   1.00
H1       0.30251    0.78368    0.09944   1.00
C5       0.27050    0.82067    -0.10535   1.00
H1       0.26665    0.81044    -0.02747   1.00
H1       0.30293    0.78379    0.02770   1.00
H2       0.30128    0.82815    -0.09837   1.00
H2       0.26872    0.81652    -0.13747   1.00
N1       0.24454    0.85258    -0.09395   1.00
C6       0.24137    0.86833    -0.05810   1.00
C6       0.21972    0.87182    -0.11757   1.00
C6       0.21406    0.89788    -0.05873   1.00
C6       0.20029    0.90010    -0.09656   1.00
H3       0.25788    0.85903    -0.03281   1.00
H3       0.21581    0.86564    -0.14831   1.00
H3       0.20520    0.91586    -0.03436   1.00
H3       0.17854    0.92010    -0.10758   1.00
H2       0.19375    0.71295    0.13772   1.00
H2       0.15931    0.72383    0.09999   1.00
N1       0.18663    0.66915    0.09477   1.00
C6       0.19232    0.63622    0.11922   1.00
C6       0.17889    0.65362    0.05715   1.00
C6       0.18825    0.60271    0.09723   1.00
C6       0.18002    0.61340    0.05909   1.00
H3       0.19889    0.63747    0.15008   1.00
H3       0.17343    0.67085    0.03124   1.00
H3       0.19109    0.57318    0.10795   1.00
H3       0.17538    0.59364    0.03495   1.00
C4       0.74969    0.24978    0.47915   1.00
C4       0.75031    0.25022    0.52085   1.00
C3       0.72018    0.26895    0.45751   1.00
C3       0.74050    0.28396    0.54252   1.00
C3       0.77919    0.23075    0.45738   1.00
C3       0.75999    0.21647    0.54259   1.00
C2       0.74991    0.25013    0.39482   1.00
C2       0.74991    0.25013    0.60518   1.00
C3a      0.72015    0.26920    0.41599   1.00
C3       0.74034    0.28384    0.58382   1.00
C3       0.77924    0.23097    0.41611   1.00
C3a      0.75987    0.21623    0.58403   1.00
H1       0.69683    0.28357    0.47294   1.00
H1       0.73322    0.31078    0.52750   1.00
C5       0.68813    0.28977    0.39410   1.00
H1       0.73269    0.31028    0.59933   1.00
H1       0.80251    0.21632    0.40056   1.00
C5       0.77050    0.17933    0.60535   1.00
H1       0.76665    0.18956    0.52747   1.00
H1       0.80293    0.21621    0.47230   1.00
H2       0.80128    0.17185    0.59837   1.00
H2       0.76872    0.18348    0.63747   1.00
N1       0.74454    0.14742    0.59395   1.00
C6       0.74137    0.13167    0.55810   1.00
C6       0.71972    0.12818    0.61757   1.00
C6       0.71406    0.10212    0.55873   1.00
C6       0.70029    0.09990    0.59656   1.00
H3       0.75788    0.14097    0.53281   1.00
H3       0.71581    0.13436    0.64831   1.00
H3       0.70520    0.08414    0.53436   1.00
H3       0.67854    0.07990    0.60758   1.00
H2       0.69375    0.28705    0.36228   1.00
H2       0.65931    0.27617    0.40001   1.00
N1       0.68663    0.33085    0.40523   1.00
C6       0.69232    0.36378    0.38078   1.00
C6       0.67889    0.34638    0.44285   1.00
C6       0.68825    0.39729    0.40277   1.00
C6       0.68002    0.38660    0.44091   1.00
H3       0.69889    0.36253    0.34992   1.00
H3       0.67343    0.32915    0.46876   1.00
H3       0.69109    0.42682    0.39205   1.00
H3       0.67538    0.40636    0.46505   1.00
C4       0.74978    0.47915    0.24969   1.00
C4       0.75022    0.52085    0.25031   1.00
C3       0.76895    0.45751    0.22018   1.00
C3       0.78396    0.54252    0.24050   1.00
C3       0.73075    0.45738    0.27919   1.00
C3       0.71647    0.54259    0.25999   1.00
C2       0.75013    0.39482    0.24991   1.00
C2       0.75013    0.60518    0.24991   1.00
C3a      0.76920    0.41599    0.22015   1.00
C3       0.78384    0.58382    0.24034   1.00
C3       0.73097    0.41611    0.27924   1.00
C3a      0.71623    0.58403    0.25987   1.00
H1       0.78357    0.47294    0.19683   1.00
H1       0.81078    0.52750    0.23322   1.00
C5       0.78977    0.39410    0.18813   1.00
H1       0.81028    0.59933    0.23269   1.00
H1       0.71632    0.40056    0.30251   1.00
C5       0.67933    0.60535    0.27050   1.00
H1       0.68956    0.52747    0.26665   1.00
H1       0.71621    0.47230    0.30293   1.00
H2       0.67185    0.59837    0.30128   1.00
H2       0.68348    0.63747    0.26872   1.00
N1       0.64742    0.59395    0.24454   1.00
C6       0.63167    0.55810    0.24137   1.00
C6       0.62818    0.61757    0.21972   1.00
C6       0.60212    0.55873    0.21406   1.00
C6       0.59990    0.59656    0.20029   1.00
H3       0.64097    0.53281    0.25788   1.00
H3       0.63436    0.64831    0.21581   1.00
H3       0.58414    0.53436    0.20520   1.00
H3       0.57990    0.60758    0.17854   1.00
H2       0.78705    0.36228    0.19375   1.00
H2       0.77617    0.40001    0.15931   1.00
N1       0.83085    0.40523    0.18663   1.00
C6       0.86378    0.38078    0.19232   1.00
C6       0.84638    0.44285    0.17889   1.00
C6       0.89729    0.40277    0.18825   1.00
C6       0.88660    0.44091    0.18002   1.00
H3       0.86253    0.34992    0.19889   1.00
H3       0.82915    0.46876    0.17343   1.00
H3       0.92682    0.39205    0.19109   1.00
H3       0.90636    0.46505    0.17538   1.00
C4       0.52085    0.24969    0.25022   1.00
C4       0.47915    0.25031    0.24978   1.00
C3       0.54249    0.22018    0.23105   1.00
C3       0.45748    0.24050    0.21604   1.00
C3       0.54262    0.27919    0.26925   1.00
C3       0.45741    0.25999    0.28353   1.00
C2       0.60518    0.24991    0.24987   1.00
C2       0.39482    0.24991    0.24987   1.00
C3a      0.58401    0.22015    0.23080   1.00
C3       0.41618    0.24034    0.21616   1.00
C3       0.58389    0.27924    0.26903   1.00
C3a      0.41597    0.25987    0.28377   1.00
H1       0.52706    0.19683    0.21643   1.00
H1       0.47250    0.23322    0.18922   1.00
C5       0.60590    0.18813    0.21023   1.00
H1       0.40067    0.23269    0.18972   1.00
H1       0.59944    0.30251    0.28368   1.00
C5       0.39465    0.27050    0.32067   1.00
H1       0.47253    0.26665    0.31044   1.00
H1       0.52770    0.30293    0.28379   1.00
H2       0.40163    0.30128    0.32815   1.00
H2       0.36253    0.26872    0.31652   1.00
N1       0.40605    0.24454    0.35258   1.00
C6       0.44190    0.24137    0.36833   1.00
C6       0.38243    0.21972    0.37182   1.00
C6       0.44127    0.21406    0.39788   1.00
C6       0.40344    0.20029    0.40010   1.00
H3       0.46719    0.25788    0.35903   1.00
H3       0.35169    0.21581    0.36564   1.00
H3       0.46564    0.20520    0.41586   1.00
H3       0.39242    0.17854    0.42010   1.00
H2       0.63772    0.19375    0.21295   1.00
H2       0.59999    0.15931    0.22383   1.00
N1       0.59477    0.18663    0.16915   1.00
C6       0.61922    0.19232    0.13622   1.00
C6       0.55715    0.17889    0.15362   1.00
C6       0.59723    0.18825    0.10271   1.00
C6       0.55909    0.18002    0.11340   1.00
H3       0.65008    0.19889    0.13747   1.00
H3       0.53124    0.17343    0.17085   1.00
H3       0.60795    0.19109    0.07318   1.00
H3       0.53495    0.17538    0.09364   1.00
C4       0.97915    0.24969    0.24978   1.00
C4       1.02085    0.25031    0.25022   1.00
C3       0.95751    0.22018    0.26895   1.00
C3       1.04252    0.24050    0.28396   1.00
C3       0.95738    0.27919    0.23075   1.00
C3       1.04259    0.25999    0.21647   1.00
C2       0.89482    0.24991    0.25013   1.00
C2       1.10518    0.24991    0.25013   1.00
C3a      0.91599    0.22015    0.26920   1.00
C3       1.08382    0.24034    0.28384   1.00
C3       0.91611    0.27924    0.23097   1.00
C3a      1.08403    0.25987    0.21623   1.00
H1       0.97294    0.19683    0.28357   1.00
H1       1.02750    0.23322    0.31078   1.00
C5       0.89410    0.18813    0.28977   1.00
H1       1.09933    0.23269    0.31028   1.00
H1       0.90056    0.30251    0.21632   1.00
C5       1.10535    0.27050    0.17933   1.00
H1       1.02747    0.26665    0.18956   1.00
H1       0.97230    0.30293    0.21621   1.00
H2       1.09837    0.30128    0.17185   1.00
H2       1.13747    0.26872    0.18348   1.00
N1       1.09395    0.24454    0.14742   1.00
C6       1.05810    0.24137    0.13167   1.00
C6       1.11757    0.21972    0.12818   1.00
C6       1.05873    0.21406    0.10212   1.00
C6       1.09656    0.20029    0.09990   1.00
H3       1.03281    0.25788    0.14097   1.00
H3       1.14831    0.21581    0.13436   1.00
H3       1.03436    0.20520    0.08414   1.00
H3       1.10758    0.17854    0.07990   1.00
H2       0.86228    0.19375    0.28705   1.00
H2       0.90001    0.15931    0.27617   1.00
N1       0.90523    0.18663    0.33085   1.00
C6       0.88078    0.19232    0.36378   1.00
C6       0.94285    0.17889    0.34638   1.00
C6       0.90277    0.18825    0.39729   1.00
C6       0.94091    0.18002    0.38660   1.00
H3       0.84992    0.19889    0.36253   1.00
H3       0.96876    0.17343    0.32915   1.00
H3       0.89205    0.19109    0.42682   1.00
H3       0.96505    0.17538    0.40636   1.00
C4       0.75022    0.02085    0.24969   1.00
C4       0.74978    -0.02085   0.25031   1.00
C3       0.73105    0.04249    0.22018   1.00
C3       0.71604    -0.04252   0.24050   1.00
C3       0.76925    0.04262    0.27919   1.00
C3       0.78353    -0.04259   0.25999   1.00
C2       0.74987    0.10518    0.24991   1.00
C2       0.74987    -0.10518   0.24991   1.00
C3a      0.73080    0.08401    0.22015   1.00
C3       0.71616    -0.08382   0.24034   1.00
C3       0.76903    0.08389    0.27924   1.00
C3a      0.78377    -0.08403   0.25987   1.00
H1       0.71643    0.02706    0.19683   1.00
H1       0.68922    -0.02750   0.23322   1.00
C5       0.71023    0.10590    0.18813   1.00
H1       0.68972    -0.09933   0.23269   1.00
H1       0.78368    0.09944    0.30251   1.00
C5       0.82067    -0.10535   0.27050   1.00
H1       0.81044    -0.02747   0.26665   1.00
H1       0.78379    0.02770    0.30293   1.00
H2       0.82815    -0.09837   0.30128   1.00
H2       0.81652    -0.13747   0.26872   1.00
N1       0.85258    -0.09395   0.24454   1.00
C6       0.86833    -0.05810   0.24137   1.00
C6       0.87182    -0.11757   0.21972   1.00
C6       0.89788    -0.05873   0.21406   1.00
C6       0.90010    -0.09656   0.20029   1.00
H3       0.85903    -0.03281   0.25788   1.00
H3       0.86564    -0.14831   0.21581   1.00
H3       0.91586    -0.03436   0.20520   1.00
H3       0.92010    -0.10758   0.17854   1.00
H2       0.71295    0.13772    0.19375   1.00
H2       0.72383    0.09999    0.15931   1.00
N1       0.66915    0.09477    0.18663   1.00
C6       0.63622    0.11922    0.19232   1.00
C6       0.65362    0.05715    0.17889   1.00
C6       0.60271    0.09723    0.18825   1.00
C6       0.61340    0.05909    0.18002   1.00
H3       0.63747    0.15008    0.19889   1.00
H3       0.67085    0.03124    0.17343   1.00
H3       0.57318    0.10795    0.19109   1.00
H3       0.59364    0.03495    0.17538   1.00
C4       0.74969    0.25022    0.02085   1.00
C4       0.75031    0.24978    -0.02085   1.00
C3       0.72018    0.23105    0.04249   1.00
C3       0.74050    0.21604    -0.04252   1.00
C3       0.77919    0.26925    0.04262   1.00
C3       0.75999    0.28353    -0.04259   1.00
C2       0.74991    0.24987    0.10518   1.00
C2       0.74991    0.24987    -0.10518   1.00
C3a      0.72015    0.23080    0.08401   1.00
C3       0.74034    0.21616    -0.08382   1.00
C3       0.77924    0.26903    0.08389   1.00
C3a      0.75987    0.28377    -0.08403   1.00
H1       0.69683    0.21643    0.02706   1.00
H1       0.73322    0.18922    -0.02750   1.00
C5       0.68813    0.21023    0.10590   1.00
H1       0.73269    0.18972    -0.09933   1.00
H1       0.80251    0.28368    0.09944   1.00
C5       0.77050    0.32067    -0.10535   1.00
H1       0.76665    0.31044    -0.02747   1.00
H1       0.80293    0.28379    0.02770   1.00
H2       0.80128    0.32815    -0.09837   1.00
H2       0.76872    0.31652    -0.13747   1.00
N1       0.74454    0.35258    -0.09395   1.00
C6       0.74137    0.36833    -0.05810   1.00
C6       0.71972    0.37182    -0.11757   1.00
C6       0.71406    0.39788    -0.05873   1.00
C6       0.70029    0.40010    -0.09656   1.00
H3       0.75788    0.35903    -0.03281   1.00
H3       0.71581    0.36564    -0.14831   1.00
H3       0.70520    0.41586    -0.03436   1.00
H3       0.67854    0.42010    -0.10758   1.00
H2       0.69375    0.21295    0.13772   1.00
H2       0.65931    0.22383    0.09999   1.00
N1       0.68663    0.16915    0.09477   1.00
C6       0.69232    0.13622    0.11922   1.00
C6       0.67889    0.15362    0.05715   1.00
C6       0.68825    0.10271    0.09723   1.00
C6       0.68002    0.11340    0.05909   1.00
H3       0.69889    0.13747    0.15008   1.00
H3       0.67343    0.17085    0.03124   1.00
H3       0.69109    0.07318    0.10795   1.00
H3       0.67538    0.09364    0.03495   1.00
C4       0.99969    0.99978    1.22915   1.00
C4       1.00031    1.00022    1.27085   1.00
C3       0.97018    1.01895    1.20751   1.00
C3       0.99050    1.03396    1.29252   1.00
C3       1.02919    0.98075    1.20738   1.00
C3       1.00999    0.96647    1.29259   1.00
C2       0.99991    1.00013    1.14482   1.00
C2       0.99991    1.00013    1.35518   1.00
C3a      0.97015    1.01920    1.16599   1.00
C3       0.99034    1.03384    1.33382   1.00
C3       1.02924    0.98097    1.16611   1.00
C3a      1.00987    0.96623    1.33403   1.00
H1       0.94683    1.03357    1.22294   1.00
H1       0.98322    1.06078    1.27750   1.00
C5       0.93813    1.03977    1.14410   1.00
H1       0.98269    1.06028    1.34933   1.00
H1       1.05251    0.96632    1.15056   1.00
C5       1.02050    0.92933    1.35535   1.00
H1       1.01665    0.93956    1.27747   1.00
H1       1.05293    0.96621    1.22230   1.00
H2       1.05128    0.92185    1.34837   1.00
H2       1.01872    0.93348    1.38747   1.00
N1       0.99454    0.89742    1.34395   1.00
C6       0.99137    0.88167    1.30810   1.00
C6       0.96972    0.87818    1.36757   1.00
C6       0.96406    0.85212    1.30873   1.00
C6       0.95029    0.84990    1.34656   1.00
H3       1.00788    0.89097    1.28281   1.00
H3       0.96581    0.88436    1.39831   1.00
H3       0.95520    0.83414    1.28436   1.00
H3       0.92854    0.82990    1.35758   1.00
H2       0.94375    1.03705    1.11228   1.00
H2       0.90931    1.02617    1.15001   1.00
N1       0.93663    1.08085    1.15523   1.00
C6       0.94232    1.11378    1.13078   1.00
C6       0.92889    1.09638    1.19285   1.00
C6       0.93825    1.14729    1.15277   1.00
C6       0.93002    1.13660    1.19091   1.00
H3       0.94889    1.11253    1.09992   1.00
H3       0.92343    1.07915    1.21876   1.00
H3       0.94109    1.17682    1.14205   1.00
H3       0.92538    1.15636    1.21505   1.00
C4       0.99978    1.22915    0.99969   1.00
C4       1.00022    1.27085    1.00031   1.00
C3       1.01895    1.20751    0.97018   1.00
C3       1.03396    1.29252    0.99050   1.00
C3       0.98075    1.20738    1.02919   1.00
C3       0.96647    1.29259    1.00999   1.00
C2       1.00013    1.14482    0.99991   1.00
C2       1.00013    1.35518    0.99991   1.00
C3a      1.01920    1.16599    0.97015   1.00
C3       1.03384    1.33382    0.99034   1.00
C3       0.98097    1.16611    1.02924   1.00
C3a      0.96623    1.33403    1.00987   1.00
H1       1.03357    1.22294    0.94683   1.00
H1       1.06078    1.27750    0.98322   1.00
C5       1.03977    1.14410    0.93813   1.00
H1       1.06028    1.34933    0.98269   1.00
H1       0.96632    1.15056    1.05251   1.00
C5       0.92933    1.35535    1.02050   1.00
H1       0.93956    1.27747    1.01665   1.00
H1       0.96621    1.22230    1.05293   1.00
H2       0.92185    1.34837    1.05128   1.00
H2       0.93348    1.38747    1.01872   1.00
N1       0.89742    1.34395    0.99454   1.00
C6       0.88167    1.30810    0.99137   1.00
C6       0.87818    1.36757    0.96972   1.00
C6       0.85212    1.30873    0.96406   1.00
C6       0.84990    1.34656    0.95029   1.00
H3       0.89097    1.28281    1.00788   1.00
H3       0.88436    1.39831    0.96581   1.00
H3       0.83414    1.28436    0.95520   1.00
H3       0.82990    1.35758    0.92854   1.00
H2       1.03705    1.11228    0.94375   1.00
H2       1.02617    1.15001    0.90931   1.00
N1       1.08085    1.15523    0.93663   1.00
C6       1.11378    1.13078    0.94232   1.00
C6       1.09638    1.19285    0.92889   1.00
C6       1.14729    1.15277    0.93825   1.00
C6       1.13660    1.19091    0.93002   1.00
H3       1.11253    1.09992    0.94889   1.00
H3       1.07915    1.21876    0.92343   1.00
H3       1.17682    1.14205    0.94109   1.00
H3       1.15636    1.21505    0.92538   1.00
C4       0.77085    0.99969    1.00022   1.00
C4       0.72915    1.00031    0.99978   1.00
C3       0.79249    0.97018    0.98105   1.00
C3       0.70748    0.99050    0.96604   1.00
C3       0.79262    1.02919    1.01925   1.00
C3       0.70741    1.00999    1.03353   1.00
C2       0.85518    0.99991    0.99987   1.00
C2       0.64482    0.99991    0.99987   1.00
C3a      0.83401    0.97015    0.98080   1.00
C3       0.66618    0.99034    0.96616   1.00
C3       0.83389    1.02924    1.01903   1.00
C3a      0.66597    1.00987    1.03377   1.00
H1       0.77706    0.94683    0.96643   1.00
H1       0.72250    0.98322    0.93922   1.00
C5       0.85590    0.93813    0.96023   1.00
H1       0.65067    0.98269    0.93972   1.00
H1       0.84944    1.05251    1.03368   1.00
C5       0.64465    1.02050    1.07067   1.00
H1       0.72253    1.01665    1.06044   1.00
H1       0.77770    1.05293    1.03379   1.00
H2       0.65163    1.05128    1.07815   1.00
H2       0.61253    1.01872    1.06652   1.00
N1       0.65605    0.99454    1.10258   1.00
C6       0.69190    0.99137    1.11833   1.00
C6       0.63243    0.96972    1.12182   1.00
C6       0.69127    0.96406    1.14788   1.00
C6       0.65344    0.95029    1.15010   1.00
H3       0.71719    1.00788    1.10903   1.00
H3       0.60169    0.96581    1.11564   1.00
H3       0.71564    0.95520    1.16586   1.00
H3       0.64242    0.92854    1.17010   1.00
H2       0.88772    0.94375    0.96295   1.00
H2       0.84999    0.90931    0.97383   1.00
N1       0.84477    0.93663    0.91915   1.00
C6       0.86922    0.94232    0.88622   1.00
C6       0.80715    0.92889    0.90362   1.00
C6       0.84723    0.93825    0.85271   1.00
C6       0.80909    0.93002    0.86340   1.00
H3       0.90008    0.94889    0.88747   1.00
H3       0.78124    0.92343    0.92085   1.00
H3       0.85795    0.94109    0.82318   1.00
H3       0.78495    0.92538    0.84364   1.00
C4       1.22915    0.99969    0.99978   1.00
C4       1.27085    1.00031    1.00022   1.00
C3       1.20751    0.97018    1.01895   1.00
C3       1.29252    0.99050    1.03396   1.00
C3       1.20738    1.02919    0.98075   1.00
C3       1.29259    1.00999    0.96647   1.00
C2       1.14482    0.99991    1.00013   1.00
C2       1.35518    0.99991    1.00013   1.00
C3a      1.16599    0.97015    1.01920   1.00
C3       1.33382    0.99034    1.03384   1.00
C3       1.16611    1.02924    0.98097   1.00
C3a      1.33403    1.00987    0.96623   1.00
H1       1.22294    0.94683    1.03357   1.00
H1       1.27750    0.98322    1.06078   1.00
C5       1.14410    0.93813    1.03977   1.00
H1       1.34933    0.98269    1.06028   1.00
H1       1.15056    1.05251    0.96632   1.00
C5       1.35535    1.02050    0.92933   1.00
H1       1.27747    1.01665    0.93956   1.00
H1       1.22230    1.05293    0.96621   1.00
H2       1.34837    1.05128    0.92185   1.00
H2       1.38747    1.01872    0.93348   1.00
N1       1.34395    0.99454    0.89742   1.00
C6       1.30810    0.99137    0.88167   1.00
C6       1.36757    0.96972    0.87818   1.00
C6       1.30873    0.96406    0.85212   1.00
C6       1.34656    0.95029    0.84990   1.00
H3       1.28281    1.00788    0.89097   1.00
H3       1.39831    0.96581    0.88436   1.00
H3       1.28436    0.95520    0.83414   1.00
H3       1.35758    0.92854    0.82990   1.00
H2       1.11228    0.94375    1.03705   1.00
H2       1.15001    0.90931    1.02617   1.00
N1       1.15523    0.93663    1.08085   1.00
C6       1.13078    0.94232    1.11378   1.00
C6       1.19285    0.92889    1.09638   1.00
C6       1.15277    0.93825    1.14729   1.00
C6       1.19091    0.93002    1.13660   1.00
H3       1.09992    0.94889    1.11253   1.00
H3       1.21876    0.92343    1.07915   1.00
H3       1.14205    0.94109    1.17682   1.00
H3       1.21505    0.92538    1.15636   1.00
C4       1.00022    0.77085    0.99969   1.00
C4       0.99978    0.72915    1.00031   1.00
C3       0.98105    0.79249    0.97018   1.00
C3       0.96604    0.70748    0.99050   1.00
C3       1.01925    0.79262    1.02919   1.00
C3       1.03353    0.70741    1.00999   1.00
C2       0.99987    0.85518    0.99991   1.00
C2       0.99987    0.64482    0.99991   1.00
C3a      0.98080    0.83401    0.97015   1.00
C3       0.96616    0.66618    0.99034   1.00
C3       1.01903    0.83389    1.02924   1.00
C3a      1.03377    0.66597    1.00987   1.00
H1       0.96643    0.77706    0.94683   1.00
H1       0.93922    0.72250    0.98322   1.00
C5       0.96023    0.85590    0.93813   1.00
H1       0.93972    0.65067    0.98269   1.00
H1       1.03368    0.84944    1.05251   1.00
C5       1.07067    0.64465    1.02050   1.00
H1       1.06044    0.72253    1.01665   1.00
H1       1.03379    0.77770    1.05293   1.00
H2       1.07815    0.65163    1.05128   1.00
H2       1.06652    0.61253    1.01872   1.00
N1       1.10258    0.65605    0.99454   1.00
C6       1.11833    0.69190    0.99137   1.00
C6       1.12182    0.63243    0.96972   1.00
C6       1.14788    0.69127    0.96406   1.00
C6       1.15010    0.65344    0.95029   1.00
H3       1.10903    0.71719    1.00788   1.00
H3       1.11564    0.60169    0.96581   1.00
H3       1.16586    0.71564    0.95520   1.00
H3       1.17010    0.64242    0.92854   1.00
H2       0.96295    0.88772    0.94375   1.00
H2       0.97383    0.84999    0.90931   1.00
N1       0.91915    0.84477    0.93663   1.00
C6       0.88622    0.86922    0.94232   1.00
C6       0.90362    0.80715    0.92889   1.00
C6       0.85271    0.84723    0.93825   1.00
C6       0.86340    0.80909    0.93002   1.00
H3       0.88747    0.90008    0.94889   1.00
H3       0.92085    0.78124    0.92343   1.00
H3       0.82318    0.85795    0.94109   1.00
H3       0.84364    0.78495    0.92538   1.00
C4       0.99969    1.00022    0.77085   1.00
C4       1.00031    0.99978    0.72915   1.00
C3       0.97018    0.98105    0.79249   1.00
C3       0.99050    0.96604    0.70748   1.00
C3       1.02919    1.01925    0.79262   1.00
C3       1.00999    1.03353    0.70741   1.00
C2       0.99991    0.99987    0.85518   1.00
C2       0.99991    0.99987    0.64482   1.00
C3a      0.97015    0.98080    0.83401   1.00
C3       0.99034    0.96616    0.66618   1.00
C3       1.02924    1.01903    0.83389   1.00
C3a      1.00987    1.03377    0.66597   1.00
H1       0.94683    0.96643    0.77706   1.00
H1       0.98322    0.93922    0.72250   1.00
C5       0.93813    0.96023    0.85590   1.00
H1       0.98269    0.93972    0.65067   1.00
H1       1.05251    1.03368    0.84944   1.00
C5       1.02050    1.07067    0.64465   1.00
H1       1.01665    1.06044    0.72253   1.00
H1       1.05293    1.03379    0.77770   1.00
H2       1.05128    1.07815    0.65163   1.00
H2       1.01872    1.06652    0.61253   1.00
N1       0.99454    1.10258    0.65605   1.00
C6       0.99137    1.11833    0.69190   1.00
C6       0.96972    1.12182    0.63243   1.00
C6       0.96406    1.14788    0.69127   1.00
C6       0.95029    1.15010    0.65344   1.00
H3       1.00788    1.10903    0.71719   1.00
H3       0.96581    1.11564    0.60169   1.00
H3       0.95520    1.16586    0.71564   1.00
H3       0.92854    1.17010    0.64242   1.00
H2       0.94375    0.96295    0.88772   1.00
H2       0.90931    0.97383    0.84999   1.00
N1       0.93663    0.91915    0.84477   1.00
C6       0.94232    0.88622    0.86922   1.00
C6       0.92889    0.90362    0.80715   1.00
C6       0.93825    0.85271    0.84723   1.00
C6       0.93002    0.86340    0.80909   1.00
H3       0.94889    0.88747    0.90008   1.00
H3       0.92343    0.92085    0.78124   1.00
H3       0.94109    0.82318    0.85795   1.00
H3       0.92538    0.84364    0.78495   1.00
C4       0.49969    0.49978    1.22915   1.00
C4       0.50031    0.50022    1.27085   1.00
C3       0.47018    0.51895    1.20751   1.00
C3       0.49050    0.53396    1.29252   1.00
C3       0.52919    0.48075    1.20738   1.00
C3       0.50999    0.46647    1.29259   1.00
C2       0.49991    0.50013    1.14482   1.00
C2       0.49991    0.50013    1.35518   1.00
C3a      0.47015    0.51920    1.16599   1.00
C3       0.49034    0.53384    1.33382   1.00
C3       0.52924    0.48097    1.16611   1.00
C3a      0.50987    0.46623    1.33403   1.00
H1       0.44683    0.53357    1.22294   1.00
H1       0.48322    0.56078    1.27750   1.00
C5       0.43813    0.53977    1.14410   1.00
H1       0.48269    0.56028    1.34933   1.00
H1       0.55251    0.46632    1.15056   1.00
C5       0.52050    0.42933    1.35535   1.00
H1       0.51665    0.43956    1.27747   1.00
H1       0.55293    0.46621    1.22230   1.00
H2       0.55128    0.42185    1.34837   1.00
H2       0.51872    0.43348    1.38747   1.00
N1       0.49454    0.39742    1.34395   1.00
C6       0.49137    0.38167    1.30810   1.00
C6       0.46972    0.37818    1.36757   1.00
C6       0.46406    0.35212    1.30873   1.00
C6       0.45029    0.34990    1.34656   1.00
H3       0.50788    0.39097    1.28281   1.00
H3       0.46581    0.38436    1.39831   1.00
H3       0.45520    0.33414    1.28436   1.00
H3       0.42854    0.32990    1.35758   1.00
H2       0.44375    0.53705    1.11228   1.00
H2       0.40931    0.52617    1.15001   1.00
N1       0.43663    0.58085    1.15523   1.00
C6       0.44232    0.61378    1.13078   1.00
C6       0.42889    0.59638    1.19285   1.00
C6       0.43825    0.64729    1.15277   1.00
C6       0.43002    0.63660    1.19091   1.00
H3       0.44889    0.61253    1.09992   1.00
H3       0.42343    0.57915    1.21876   1.00
H3       0.44109    0.67682    1.14205   1.00
H3       0.42538    0.65636    1.21505   1.00
C4       0.49978    0.72915    0.99969   1.00
C4       0.50022    0.77085    1.00031   1.00
C3       0.51895    0.70751    0.97018   1.00
C3       0.53396    0.79252    0.99050   1.00
C3       0.48075    0.70738    1.02919   1.00
C3       0.46647    0.79259    1.00999   1.00
C2       0.50013    0.64482    0.99991   1.00
C2       0.50013    0.85518    0.99991   1.00
C3a      0.51920    0.66599    0.97015   1.00
C3       0.53384    0.83382    0.99034   1.00
C3       0.48097    0.66611    1.02924   1.00
C3a      0.46623    0.83403    1.00987   1.00
H1       0.53357    0.72294    0.94683   1.00
H1       0.56078    0.77750    0.98322   1.00
C5       0.53977    0.64410    0.93813   1.00
H1       0.56028    0.84933    0.98269   1.00
H1       0.46632    0.65056    1.05251   1.00
C5       0.42933    0.85535    1.02050   1.00
H1       0.43956    0.77747    1.01665   1.00
H1       0.46621    0.72230    1.05293   1.00
H2       0.42185    0.84837    1.05128   1.00
H2       0.43348    0.88747    1.01872   1.00
N1       0.39742    0.84395    0.99454   1.00
C6       0.38167    0.80810    0.99137   1.00
C6       0.37818    0.86757    0.96972   1.00
C6       0.35212    0.80873    0.96406   1.00
C6       0.34990    0.84656    0.95029   1.00
H3       0.39097    0.78281    1.00788   1.00
H3       0.38436    0.89831    0.96581   1.00
H3       0.33414    0.78436    0.95520   1.00
H3       0.32990    0.85758    0.92854   1.00
H2       0.53705    0.61228    0.94375   1.00
H2       0.52617    0.65001    0.90931   1.00
N1       0.58085    0.65523    0.93663   1.00
C6       0.61378    0.63078    0.94232   1.00
C6       0.59638    0.69285    0.92889   1.00
C6       0.64729    0.65277    0.93825   1.00
C6       0.63660    0.69091    0.93002   1.00
H3       0.61253    0.59992    0.94889   1.00
H3       0.57915    0.71876    0.92343   1.00
H3       0.67682    0.64205    0.94109   1.00
H3       0.65636    0.71505    0.92538   1.00
C4       0.27085    0.49969    1.00022   1.00
C4       0.22915    0.50031    0.99978   1.00
C3       0.29249    0.47018    0.98105   1.00
C3       0.20748    0.49050    0.96604   1.00
C3       0.29262    0.52919    1.01925   1.00
C3       0.20741    0.50999    1.03353   1.00
C2       0.35518    0.49991    0.99987   1.00
C2       0.14482    0.49991    0.99987   1.00
C3a      0.33401    0.47015    0.98080   1.00
C3       0.16618    0.49034    0.96616   1.00
C3       0.33389    0.52924    1.01903   1.00
C3a      0.16597    0.50987    1.03377   1.00
H1       0.27706    0.44683    0.96643   1.00
H1       0.22250    0.48322    0.93922   1.00
C5       0.35590    0.43813    0.96023   1.00
H1       0.15067    0.48269    0.93972   1.00
H1       0.34944    0.55251    1.03368   1.00
C5       0.14465    0.52050    1.07067   1.00
H1       0.22253    0.51665    1.06044   1.00
H1       0.27770    0.55293    1.03379   1.00
H2       0.15163    0.55128    1.07815   1.00
H2       0.11253    0.51872    1.06652   1.00
N1       0.15605    0.49454    1.10258   1.00
C6       0.19190    0.49137    1.11833   1.00
C6       0.13243    0.46972    1.12182   1.00
C6       0.19127    0.46406    1.14788   1.00
C6       0.15344    0.45029    1.15010   1.00
H3       0.21719    0.50788    1.10903   1.00
H3       0.10169    0.46581    1.11564   1.00
H3       0.21564    0.45520    1.16586   1.00
H3       0.14242    0.42854    1.17010   1.00
H2       0.38772    0.44375    0.96295   1.00
H2       0.34999    0.40931    0.97383   1.00
N1       0.34477    0.43663    0.91915   1.00
C6       0.36922    0.44232    0.88622   1.00
C6       0.30715    0.42889    0.90362   1.00
C6       0.34723    0.43825    0.85271   1.00
C6       0.30909    0.43002    0.86340   1.00
H3       0.40008    0.44889    0.88747   1.00
H3       0.28124    0.42343    0.92085   1.00
H3       0.35795    0.44109    0.82318   1.00
H3       0.28495    0.42538    0.84364   1.00
C4       0.72915    0.49969    0.99978   1.00
C4       0.77085    0.50031    1.00022   1.00
C3       0.70751    0.47018    1.01895   1.00
C3       0.79252    0.49050    1.03396   1.00
C3       0.70738    0.52919    0.98075   1.00
C3       0.79259    0.50999    0.96647   1.00
C2       0.64482    0.49991    1.00013   1.00
C2       0.85518    0.49991    1.00013   1.00
C3a      0.66599    0.47015    1.01920   1.00
C3       0.83382    0.49034    1.03384   1.00
C3       0.66611    0.52924    0.98097   1.00
C3a      0.83403    0.50987    0.96623   1.00
H1       0.72294    0.44683    1.03357   1.00
H1       0.77750    0.48322    1.06078   1.00
C5       0.64410    0.43813    1.03977   1.00
H1       0.84933    0.48269    1.06028   1.00
H1       0.65056    0.55251    0.96632   1.00
C5       0.85535    0.52050    0.92933   1.00
H1       0.77747    0.51665    0.93956   1.00
H1       0.72230    0.55293    0.96621   1.00
H2       0.84837    0.55128    0.92185   1.00
H2       0.88747    0.51872    0.93348   1.00
N1       0.84395    0.49454    0.89742   1.00
C6       0.80810    0.49137    0.88167   1.00
C6       0.86757    0.46972    0.87818   1.00
C6       0.80873    0.46406    0.85212   1.00
C6       0.84656    0.45029    0.84990   1.00
H3       0.78281    0.50788    0.89097   1.00
H3       0.89831    0.46581    0.88436   1.00
H3       0.78436    0.45520    0.83414   1.00
H3       0.85758    0.42854    0.82990   1.00
H2       0.61228    0.44375    1.03705   1.00
H2       0.65001    0.40931    1.02617   1.00
N1       0.65523    0.43663    1.08085   1.00
C6       0.63078    0.44232    1.11378   1.00
C6       0.69285    0.42889    1.09638   1.00
C6       0.65277    0.43825    1.14729   1.00
C6       0.69091    0.43002    1.13660   1.00
H3       0.59992    0.44889    1.11253   1.00
H3       0.71876    0.42343    1.07915   1.00
H3       0.64205    0.44109    1.17682   1.00
H3       0.71505    0.42538    1.15636   1.00
C4       0.50022    0.27085    0.99969   1.00
C4       0.49978    0.22915    1.00031   1.00
C3       0.48105    0.29249    0.97018   1.00
C3       0.46604    0.20748    0.99050   1.00
C3       0.51925    0.29262    1.02919   1.00
C3       0.53353    0.20741    1.00999   1.00
C2       0.49987    0.35518    0.99991   1.00
C2       0.49987    0.14482    0.99991   1.00
C3a      0.48080    0.33401    0.97015   1.00
C3       0.46616    0.16618    0.99034   1.00
C3       0.51903    0.33389    1.02924   1.00
C3a      0.53377    0.16597    1.00987   1.00
H1       0.46643    0.27706    0.94683   1.00
H1       0.43922    0.22250    0.98322   1.00
C5       0.46023    0.35590    0.93813   1.00
H1       0.43972    0.15067    0.98269   1.00
H1       0.53368    0.34944    1.05251   1.00
C5       0.57067    0.14465    1.02050   1.00
H1       0.56044    0.22253    1.01665   1.00
H1       0.53379    0.27770    1.05293   1.00
H2       0.57815    0.15163    1.05128   1.00
H2       0.56652    0.11253    1.01872   1.00
N1       0.60258    0.15605    0.99454   1.00
C6       0.61833    0.19190    0.99137   1.00
C6       0.62182    0.13243    0.96972   1.00
C6       0.64788    0.19127    0.96406   1.00
C6       0.65010    0.15344    0.95029   1.00
H3       0.60903    0.21719    1.00788   1.00
H3       0.61564    0.10169    0.96581   1.00
H3       0.66586    0.21564    0.95520   1.00
H3       0.67010    0.14242    0.92854   1.00
H2       0.46295    0.38772    0.94375   1.00
H2       0.47383    0.34999    0.90931   1.00
N1       0.41915    0.34477    0.93663   1.00
C6       0.38622    0.36922    0.94232   1.00
C6       0.40362    0.30715    0.92889   1.00
C6       0.35271    0.34723    0.93825   1.00
C6       0.36340    0.30909    0.93002   1.00
H3       0.38747    0.40008    0.94889   1.00
H3       0.42085    0.28124    0.92343   1.00
H3       0.32318    0.35795    0.94109   1.00
H3       0.34364    0.28495    0.92538   1.00
C4       0.49969    0.50022    0.77085   1.00
C4       0.50031    0.49978    0.72915   1.00
C3       0.47018    0.48105    0.79249   1.00
C3       0.49050    0.46604    0.70748   1.00
C3       0.52919    0.51925    0.79262   1.00
C3       0.50999    0.53353    0.70741   1.00
C2       0.49991    0.49987    0.85518   1.00
C2       0.49991    0.49987    0.64482   1.00
C3a      0.47015    0.48080    0.83401   1.00
C3       0.49034    0.46616    0.66618   1.00
C3       0.52924    0.51903    0.83389   1.00
C3a      0.50987    0.53377    0.66597   1.00
H1       0.44683    0.46643    0.77706   1.00
H1       0.48322    0.43922    0.72250   1.00
C5       0.43813    0.46023    0.85590   1.00
H1       0.48269    0.43972    0.65067   1.00
H1       0.55251    0.53368    0.84944   1.00
C5       0.52050    0.57067    0.64465   1.00
H1       0.51665    0.56044    0.72253   1.00
H1       0.55293    0.53379    0.77770   1.00
H2       0.55128    0.57815    0.65163   1.00
H2       0.51872    0.56652    0.61253   1.00
N1       0.49454    0.60258    0.65605   1.00
C6       0.49137    0.61833    0.69190   1.00
C6       0.46972    0.62182    0.63243   1.00
C6       0.46406    0.64788    0.69127   1.00
C6       0.45029    0.65010    0.65344   1.00
H3       0.50788    0.60903    0.71719   1.00
H3       0.46581    0.61564    0.60169   1.00
H3       0.45520    0.66586    0.71564   1.00
H3       0.42854    0.67010    0.64242   1.00
H2       0.44375    0.46295    0.88772   1.00
H2       0.40931    0.47383    0.84999   1.00
N1       0.43663    0.41915    0.84477   1.00
C6       0.44232    0.38622    0.86922   1.00
C6       0.42889    0.40362    0.80715   1.00
C6       0.43825    0.35271    0.84723   1.00
C6       0.43002    0.36340    0.80909   1.00
H3       0.44889    0.38747    0.90008   1.00
H3       0.42343    0.42085    0.78124   1.00
H3       0.44109    0.32318    0.85795   1.00
H3       0.42538    0.34364    0.78495   1.00
C4       0.49969    0.99978    0.72915   1.00
C4       0.50031    1.00022    0.77085   1.00
C3       0.47018    1.01895    0.70751   1.00
C3       0.49050    1.03396    0.79252   1.00
C3       0.52919    0.98075    0.70738   1.00
C3       0.50999    0.96647    0.79259   1.00
C2       0.49991    1.00013    0.64482   1.00
C2       0.49991    1.00013    0.85518   1.00
C3a      0.47015    1.01920    0.66599   1.00
C3       0.49034    1.03384    0.83382   1.00
C3       0.52924    0.98097    0.66611   1.00
C3a      0.50987    0.96623    0.83403   1.00
H1       0.44683    1.03357    0.72294   1.00
H1       0.48322    1.06078    0.77750   1.00
C5       0.43813    1.03977    0.64410   1.00
H1       0.48269    1.06028    0.84933   1.00
H1       0.55251    0.96632    0.65056   1.00
C5       0.52050    0.92933    0.85535   1.00
H1       0.51665    0.93956    0.77747   1.00
H1       0.55293    0.96621    0.72230   1.00
H2       0.55128    0.92185    0.84837   1.00
H2       0.51872    0.93348    0.88747   1.00
N1       0.49454    0.89742    0.84395   1.00
C6       0.49137    0.88167    0.80810   1.00
C6       0.46972    0.87818    0.86757   1.00
C6       0.46406    0.85212    0.80873   1.00
C6       0.45029    0.84990    0.84656   1.00
H3       0.50788    0.89097    0.78281   1.00
H3       0.46581    0.88436    0.89831   1.00
H3       0.45520    0.83414    0.78436   1.00
H3       0.42854    0.82990    0.85758   1.00
H2       0.44375    1.03705    0.61228   1.00
H2       0.40931    1.02617    0.65001   1.00
N1       0.43663    1.08085    0.65523   1.00
C6       0.44232    1.11378    0.63078   1.00
C6       0.42889    1.09638    0.69285   1.00
C6       0.43825    1.14729    0.65277   1.00
C6       0.43002    1.13660    0.69091   1.00
H3       0.44889    1.11253    0.59992   1.00
H3       0.42343    1.07915    0.71876   1.00
H3       0.44109    1.17682    0.64205   1.00
H3       0.42538    1.15636    0.71505   1.00
C4       0.49978    1.22915    0.49969   1.00
C4       0.50022    1.27085    0.50031   1.00
C3       0.51895    1.20751    0.47018   1.00
C3       0.53396    1.29252    0.49050   1.00
C3       0.48075    1.20738    0.52919   1.00
C3       0.46647    1.29259    0.50999   1.00
C2       0.50013    1.14482    0.49991   1.00
C2       0.50013    1.35518    0.49991   1.00
C3a      0.51920    1.16599    0.47015   1.00
C3       0.53384    1.33382    0.49034   1.00
C3       0.48097    1.16611    0.52924   1.00
C3a      0.46623    1.33403    0.50987   1.00
H1       0.53357    1.22294    0.44683   1.00
H1       0.56078    1.27750    0.48322   1.00
C5       0.53977    1.14410    0.43813   1.00
H1       0.56028    1.34933    0.48269   1.00
H1       0.46632    1.15056    0.55251   1.00
C5       0.42933    1.35535    0.52050   1.00
H1       0.43956    1.27747    0.51665   1.00
H1       0.46621    1.22230    0.55293   1.00
H2       0.42185    1.34837    0.55128   1.00
H2       0.43348    1.38747    0.51872   1.00
N1       0.39742    1.34395    0.49454   1.00
C6       0.38167    1.30810    0.49137   1.00
C6       0.37818    1.36757    0.46972   1.00
C6       0.35212    1.30873    0.46406   1.00
C6       0.34990    1.34656    0.45029   1.00
H3       0.39097    1.28281    0.50788   1.00
H3       0.38436    1.39831    0.46581   1.00
H3       0.33414    1.28436    0.45520   1.00
H3       0.32990    1.35758    0.42854   1.00
H2       0.53705    1.11228    0.44375   1.00
H2       0.52617    1.15001    0.40931   1.00
N1       0.58085    1.15523    0.43663   1.00
C6       0.61378    1.13078    0.44232   1.00
C6       0.59638    1.19285    0.42889   1.00
C6       0.64729    1.15277    0.43825   1.00
C6       0.63660    1.19091    0.43002   1.00
H3       0.61253    1.09992    0.44889   1.00
H3       0.57915    1.21876    0.42343   1.00
H3       0.67682    1.14205    0.44109   1.00
H3       0.65636    1.21505    0.42538   1.00
C4       0.27085    0.99969    0.50022   1.00
C4       0.22915    1.00031    0.49978   1.00
C3       0.29249    0.97018    0.48105   1.00
C3       0.20748    0.99050    0.46604   1.00
C3       0.29262    1.02919    0.51925   1.00
C3       0.20741    1.00999    0.53353   1.00
C2       0.35518    0.99991    0.49987   1.00
C2       0.14482    0.99991    0.49987   1.00
C3a      0.33401    0.97015    0.48080   1.00
C3       0.16618    0.99034    0.46616   1.00
C3       0.33389    1.02924    0.51903   1.00
C3a      0.16597    1.00987    0.53377   1.00
H1       0.27706    0.94683    0.46643   1.00
H1       0.22250    0.98322    0.43922   1.00
C5       0.35590    0.93813    0.46023   1.00
H1       0.15067    0.98269    0.43972   1.00
H1       0.34944    1.05251    0.53368   1.00
C5       0.14465    1.02050    0.57067   1.00
H1       0.22253    1.01665    0.56044   1.00
H1       0.27770    1.05293    0.53379   1.00
H2       0.15163    1.05128    0.57815   1.00
H2       0.11253    1.01872    0.56652   1.00
N1       0.15605    0.99454    0.60258   1.00
C6       0.19190    0.99137    0.61833   1.00
C6       0.13243    0.96972    0.62182   1.00
C6       0.19127    0.96406    0.64788   1.00
C6       0.15344    0.95029    0.65010   1.00
H3       0.21719    1.00788    0.60903   1.00
H3       0.10169    0.96581    0.61564   1.00
H3       0.21564    0.95520    0.66586   1.00
H3       0.14242    0.92854    0.67010   1.00
H2       0.38772    0.94375    0.46295   1.00
H2       0.34999    0.90931    0.47383   1.00
N1       0.34477    0.93663    0.41915   1.00
C6       0.36922    0.94232    0.38622   1.00
C6       0.30715    0.92889    0.40362   1.00
C6       0.34723    0.93825    0.35271   1.00
C6       0.30909    0.93002    0.36340   1.00
H3       0.40008    0.94889    0.38747   1.00
H3       0.28124    0.92343    0.42085   1.00
H3       0.35795    0.94109    0.32318   1.00
H3       0.28495    0.92538    0.34364   1.00
C4       0.72915    0.99969    0.49978   1.00
C4       0.77085    1.00031    0.50022   1.00
C3       0.70751    0.97018    0.51895   1.00
C3       0.79252    0.99050    0.53396   1.00
C3       0.70738    1.02919    0.48075   1.00
C3       0.79259    1.00999    0.46647   1.00
C2       0.64482    0.99991    0.50013   1.00
C2       0.85518    0.99991    0.50013   1.00
C3a      0.66599    0.97015    0.51920   1.00
C3       0.83382    0.99034    0.53384   1.00
C3       0.66611    1.02924    0.48097   1.00
C3a      0.83403    1.00987    0.46623   1.00
H1       0.72294    0.94683    0.53357   1.00
H1       0.77750    0.98322    0.56078   1.00
C5       0.64410    0.93813    0.53977   1.00
H1       0.84933    0.98269    0.56028   1.00
H1       0.65056    1.05251    0.46632   1.00
C5       0.85535    1.02050    0.42933   1.00
H1       0.77747    1.01665    0.43956   1.00
H1       0.72230    1.05293    0.46621   1.00
H2       0.84837    1.05128    0.42185   1.00
H2       0.88747    1.01872    0.43348   1.00
N1       0.84395    0.99454    0.39742   1.00
C6       0.80810    0.99137    0.38167   1.00
C6       0.86757    0.96972    0.37818   1.00
C6       0.80873    0.96406    0.35212   1.00
C6       0.84656    0.95029    0.34990   1.00
H3       0.78281    1.00788    0.39097   1.00
H3       0.89831    0.96581    0.38436   1.00
H3       0.78436    0.95520    0.33414   1.00
H3       0.85758    0.92854    0.32990   1.00
H2       0.61228    0.94375    0.53705   1.00
H2       0.65001    0.90931    0.52617   1.00
N1       0.65523    0.93663    0.58085   1.00
C6       0.63078    0.94232    0.61378   1.00
C6       0.69285    0.92889    0.59638   1.00
C6       0.65277    0.93825    0.64729   1.00
C6       0.69091    0.93002    0.63660   1.00
H3       0.59992    0.94889    0.61253   1.00
H3       0.71876    0.92343    0.57915   1.00
H3       0.64205    0.94109    0.67682   1.00
H3       0.71505    0.92538    0.65636   1.00
C4       0.50022    0.77085    0.49969   1.00
C4       0.49978    0.72915    0.50031   1.00
C3       0.48105    0.79249    0.47018   1.00
C3       0.46604    0.70748    0.49050   1.00
C3       0.51925    0.79262    0.52919   1.00
C3       0.53353    0.70741    0.50999   1.00
C2       0.49987    0.85518    0.49991   1.00
C2       0.49987    0.64482    0.49991   1.00
C3a      0.48080    0.83401    0.47015   1.00
C3       0.46616    0.66618    0.49034   1.00
C3       0.51903    0.83389    0.52924   1.00
C3a      0.53377    0.66597    0.50987   1.00
H1       0.46643    0.77706    0.44683   1.00
H1       0.43922    0.72250    0.48322   1.00
C5       0.46023    0.85590    0.43813   1.00
H1       0.43972    0.65067    0.48269   1.00
H1       0.53368    0.84944    0.55251   1.00
C5       0.57067    0.64465    0.52050   1.00
H1       0.56044    0.72253    0.51665   1.00
H1       0.53379    0.77770    0.55293   1.00
H2       0.57815    0.65163    0.55128   1.00
H2       0.56652    0.61253    0.51872   1.00
N1       0.60258    0.65605    0.49454   1.00
C6       0.61833    0.69190    0.49137   1.00
C6       0.62182    0.63243    0.46972   1.00
C6       0.64788    0.69127    0.46406   1.00
C6       0.65010    0.65344    0.45029   1.00
H3       0.60903    0.71719    0.50788   1.00
H3       0.61564    0.60169    0.46581   1.00
H3       0.66586    0.71564    0.45520   1.00
H3       0.67010    0.64242    0.42854   1.00
H2       0.46295    0.88772    0.44375   1.00
H2       0.47383    0.84999    0.40931   1.00
N1       0.41915    0.84477    0.43663   1.00
C6       0.38622    0.86922    0.44232   1.00
C6       0.40362    0.80715    0.42889   1.00
C6       0.35271    0.84723    0.43825   1.00
C6       0.36340    0.80909    0.43002   1.00
H3       0.38747    0.90008    0.44889   1.00
H3       0.42085    0.78124    0.42343   1.00
H3       0.32318    0.85795    0.44109   1.00
H3       0.34364    0.78495    0.42538   1.00
C4       0.49969    1.00022    0.27085   1.00
C4       0.50031    0.99978    0.22915   1.00
C3       0.47018    0.98105    0.29249   1.00
C3       0.49050    0.96604    0.20748   1.00
C3       0.52919    1.01925    0.29262   1.00
C3       0.50999    1.03353    0.20741   1.00
C2       0.49991    0.99987    0.35518   1.00
C2       0.49991    0.99987    0.14482   1.00
C3a      0.47015    0.98080    0.33401   1.00
C3       0.49034    0.96616    0.16618   1.00
C3       0.52924    1.01903    0.33389   1.00
C3a      0.50987    1.03377    0.16597   1.00
H1       0.44683    0.96643    0.27706   1.00
H1       0.48322    0.93922    0.22250   1.00
C5       0.43813    0.96023    0.35590   1.00
H1       0.48269    0.93972    0.15067   1.00
H1       0.55251    1.03368    0.34944   1.00
C5       0.52050    1.07067    0.14465   1.00
H1       0.51665    1.06044    0.22253   1.00
H1       0.55293    1.03379    0.27770   1.00
H2       0.55128    1.07815    0.15163   1.00
H2       0.51872    1.06652    0.11253   1.00
N1       0.49454    1.10258    0.15605   1.00
C6       0.49137    1.11833    0.19190   1.00
C6       0.46972    1.12182    0.13243   1.00
C6       0.46406    1.14788    0.19127   1.00
C6       0.45029    1.15010    0.15344   1.00
H3       0.50788    1.10903    0.21719   1.00
H3       0.46581    1.11564    0.10169   1.00
H3       0.45520    1.16586    0.21564   1.00
H3       0.42854    1.17010    0.14242   1.00
H2       0.44375    0.96295    0.38772   1.00
H2       0.40931    0.97383    0.34999   1.00
N1       0.43663    0.91915    0.34477   1.00
C6       0.44232    0.88622    0.36922   1.00
C6       0.42889    0.90362    0.30715   1.00
C6       0.43825    0.85271    0.34723   1.00
C6       0.43002    0.86340    0.30909   1.00
H3       0.44889    0.88747    0.40008   1.00
H3       0.42343    0.92085    0.28124   1.00
H3       0.44109    0.82318    0.35795   1.00
H3       0.42538    0.84364    0.28495   1.00
C4       0.99969    0.49978    0.72915   1.00
C4       1.00031    0.50022    0.77085   1.00
C3       0.97018    0.51895    0.70751   1.00
C3       0.99050    0.53396    0.79252   1.00
C3       1.02919    0.48075    0.70738   1.00
C3       1.00999    0.46647    0.79259   1.00
C2       0.99991    0.50013    0.64482   1.00
C2       0.99991    0.50013    0.85518   1.00
C3a      0.97015    0.51920    0.66599   1.00
C3       0.99034    0.53384    0.83382   1.00
C3       1.02924    0.48097    0.66611   1.00
C3a      1.00987    0.46623    0.83403   1.00
H1       0.94683    0.53357    0.72294   1.00
H1       0.98322    0.56078    0.77750   1.00
C5       0.93813    0.53977    0.64410   1.00
H1       0.98269    0.56028    0.84933   1.00
H1       1.05251    0.46632    0.65056   1.00
C5       1.02050    0.42933    0.85535   1.00
H1       1.01665    0.43956    0.77747   1.00
H1       1.05293    0.46621    0.72230   1.00
H2       1.05128    0.42185    0.84837   1.00
H2       1.01872    0.43348    0.88747   1.00
N1       0.99454    0.39742    0.84395   1.00
C6       0.99137    0.38167    0.80810   1.00
C6       0.96972    0.37818    0.86757   1.00
C6       0.96406    0.35212    0.80873   1.00
C6       0.95029    0.34990    0.84656   1.00
H3       1.00788    0.39097    0.78281   1.00
H3       0.96581    0.38436    0.89831   1.00
H3       0.95520    0.33414    0.78436   1.00
H3       0.92854    0.32990    0.85758   1.00
H2       0.94375    0.53705    0.61228   1.00
H2       0.90931    0.52617    0.65001   1.00
N1       0.93663    0.58085    0.65523   1.00
C6       0.94232    0.61378    0.63078   1.00
C6       0.92889    0.59638    0.69285   1.00
C6       0.93825    0.64729    0.65277   1.00
C6       0.93002    0.63660    0.69091   1.00
H3       0.94889    0.61253    0.59992   1.00
H3       0.92343    0.57915    0.71876   1.00
H3       0.94109    0.67682    0.64205   1.00
H3       0.92538    0.65636    0.71505   1.00
C4       0.99978    0.72915    0.49969   1.00
C4       1.00022    0.77085    0.50031   1.00
C3       1.01895    0.70751    0.47018   1.00
C3       1.03396    0.79252    0.49050   1.00
C3       0.98075    0.70738    0.52919   1.00
C3       0.96647    0.79259    0.50999   1.00
C2       1.00013    0.64482    0.49991   1.00
C2       1.00013    0.85518    0.49991   1.00
C3a      1.01920    0.66599    0.47015   1.00
C3       1.03384    0.83382    0.49034   1.00
C3       0.98097    0.66611    0.52924   1.00
C3a      0.96623    0.83403    0.50987   1.00
H1       1.03357    0.72294    0.44683   1.00
H1       1.06078    0.77750    0.48322   1.00
C5       1.03977    0.64410    0.43813   1.00
H1       1.06028    0.84933    0.48269   1.00
H1       0.96632    0.65056    0.55251   1.00
C5       0.92933    0.85535    0.52050   1.00
H1       0.93956    0.77747    0.51665   1.00
H1       0.96621    0.72230    0.55293   1.00
H2       0.92185    0.84837    0.55128   1.00
H2       0.93348    0.88747    0.51872   1.00
N1       0.89742    0.84395    0.49454   1.00
C6       0.88167    0.80810    0.49137   1.00
C6       0.87818    0.86757    0.46972   1.00
C6       0.85212    0.80873    0.46406   1.00
C6       0.84990    0.84656    0.45029   1.00
H3       0.89097    0.78281    0.50788   1.00
H3       0.88436    0.89831    0.46581   1.00
H3       0.83414    0.78436    0.45520   1.00
H3       0.82990    0.85758    0.42854   1.00
H2       1.03705    0.61228    0.44375   1.00
H2       1.02617    0.65001    0.40931   1.00
N1       1.08085    0.65523    0.43663   1.00
C6       1.11378    0.63078    0.44232   1.00
C6       1.09638    0.69285    0.42889   1.00
C6       1.14729    0.65277    0.43825   1.00
C6       1.13660    0.69091    0.43002   1.00
H3       1.11253    0.59992    0.44889   1.00
H3       1.07915    0.71876    0.42343   1.00
H3       1.17682    0.64205    0.44109   1.00
H3       1.15636    0.71505    0.42538   1.00
C4       0.77085    0.49969    0.50022   1.00
C4       0.72915    0.50031    0.49978   1.00
C3       0.79249    0.47018    0.48105   1.00
C3       0.70748    0.49050    0.46604   1.00
C3       0.79262    0.52919    0.51925   1.00
C3       0.70741    0.50999    0.53353   1.00
C2       0.85518    0.49991    0.49987   1.00
C2       0.64482    0.49991    0.49987   1.00
C3a      0.83401    0.47015    0.48080   1.00
C3       0.66618    0.49034    0.46616   1.00
C3       0.83389    0.52924    0.51903   1.00
C3a      0.66597    0.50987    0.53377   1.00
H1       0.77706    0.44683    0.46643   1.00
H1       0.72250    0.48322    0.43922   1.00
C5       0.85590    0.43813    0.46023   1.00
H1       0.65067    0.48269    0.43972   1.00
H1       0.84944    0.55251    0.53368   1.00
C5       0.64465    0.52050    0.57067   1.00
H1       0.72253    0.51665    0.56044   1.00
H1       0.77770    0.55293    0.53379   1.00
H2       0.65163    0.55128    0.57815   1.00
H2       0.61253    0.51872    0.56652   1.00
N1       0.65605    0.49454    0.60258   1.00
C6       0.69190    0.49137    0.61833   1.00
C6       0.63243    0.46972    0.62182   1.00
C6       0.69127    0.46406    0.64788   1.00
C6       0.65344    0.45029    0.65010   1.00
H3       0.71719    0.50788    0.60903   1.00
H3       0.60169    0.46581    0.61564   1.00
H3       0.71564    0.45520    0.66586   1.00
H3       0.64242    0.42854    0.67010   1.00
H2       0.88772    0.44375    0.46295   1.00
H2       0.84999    0.40931    0.47383   1.00
N1       0.84477    0.43663    0.41915   1.00
C6       0.86922    0.44232    0.38622   1.00
C6       0.80715    0.42889    0.40362   1.00
C6       0.84723    0.43825    0.35271   1.00
C6       0.80909    0.43002    0.36340   1.00
H3       0.90008    0.44889    0.38747   1.00
H3       0.78124    0.42343    0.42085   1.00
H3       0.85795    0.44109    0.32318   1.00
H3       0.78495    0.42538    0.34364   1.00
C4       1.22915    0.49969    0.49978   1.00
C4       1.27085    0.50031    0.50022   1.00
C3       1.20751    0.47018    0.51895   1.00
C3       1.29252    0.49050    0.53396   1.00
C3       1.20738    0.52919    0.48075   1.00
C3       1.29259    0.50999    0.46647   1.00
C2       1.14482    0.49991    0.50013   1.00
C2       1.35518    0.49991    0.50013   1.00
C3a      1.16599    0.47015    0.51920   1.00
C3       1.33382    0.49034    0.53384   1.00
C3       1.16611    0.52924    0.48097   1.00
C3a      1.33403    0.50987    0.46623   1.00
H1       1.22294    0.44683    0.53357   1.00
H1       1.27750    0.48322    0.56078   1.00
C5       1.14410    0.43813    0.53977   1.00
H1       1.34933    0.48269    0.56028   1.00
H1       1.15056    0.55251    0.46632   1.00
C5       1.35535    0.52050    0.42933   1.00
H1       1.27747    0.51665    0.43956   1.00
H1       1.22230    0.55293    0.46621   1.00
H2       1.34837    0.55128    0.42185   1.00
H2       1.38747    0.51872    0.43348   1.00
N1       1.34395    0.49454    0.39742   1.00
C6       1.30810    0.49137    0.38167   1.00
C6       1.36757    0.46972    0.37818   1.00
C6       1.30873    0.46406    0.35212   1.00
C6       1.34656    0.45029    0.34990   1.00
H3       1.28281    0.50788    0.39097   1.00
H3       1.39831    0.46581    0.38436   1.00
H3       1.28436    0.45520    0.33414   1.00
H3       1.35758    0.42854    0.32990   1.00
H2       1.11228    0.44375    0.53705   1.00
H2       1.15001    0.40931    0.52617   1.00
N1       1.15523    0.43663    0.58085   1.00
C6       1.13078    0.44232    0.61378   1.00
C6       1.19285    0.42889    0.59638   1.00
C6       1.15277    0.43825    0.64729   1.00
C6       1.19091    0.43002    0.63660   1.00
H3       1.09992    0.44889    0.61253   1.00
H3       1.21876    0.42343    0.57915   1.00
H3       1.14205    0.44109    0.67682   1.00
H3       1.21505    0.42538    0.65636   1.00
C4       1.00022    0.27085    0.49969   1.00
C4       0.99978    0.22915    0.50031   1.00
C3       0.98105    0.29249    0.47018   1.00
C3       0.96604    0.20748    0.49050   1.00
C3       1.01925    0.29262    0.52919   1.00
C3       1.03353    0.20741    0.50999   1.00
C2       0.99987    0.35518    0.49991   1.00
C2       0.99987    0.14482    0.49991   1.00
C3a      0.98080    0.33401    0.47015   1.00
C3       0.96616    0.16618    0.49034   1.00
C3       1.01903    0.33389    0.52924   1.00
C3a      1.03377    0.16597    0.50987   1.00
H1       0.96643    0.27706    0.44683   1.00
H1       0.93922    0.22250    0.48322   1.00
C5       0.96023    0.35590    0.43813   1.00
H1       0.93972    0.15067    0.48269   1.00
H1       1.03368    0.34944    0.55251   1.00
C5       1.07067    0.14465    0.52050   1.00
H1       1.06044    0.22253    0.51665   1.00
H1       1.03379    0.27770    0.55293   1.00
H2       1.07815    0.15163    0.55128   1.00
H2       1.06652    0.11253    0.51872   1.00
N1       1.10258    0.15605    0.49454   1.00
C6       1.11833    0.19190    0.49137   1.00
C6       1.12182    0.13243    0.46972   1.00
C6       1.14788    0.19127    0.46406   1.00
C6       1.15010    0.15344    0.45029   1.00
H3       1.10903    0.21719    0.50788   1.00
H3       1.11564    0.10169    0.46581   1.00
H3       1.16586    0.21564    0.45520   1.00
H3       1.17010    0.14242    0.42854   1.00
H2       0.96295    0.38772    0.44375   1.00
H2       0.97383    0.34999    0.40931   1.00
N1       0.91915    0.34477    0.43663   1.00
C6       0.88622    0.36922    0.44232   1.00
C6       0.90362    0.30715    0.42889   1.00
C6       0.85271    0.34723    0.43825   1.00
C6       0.86340    0.30909    0.43002   1.00
H3       0.88747    0.40008    0.44889   1.00
H3       0.92085    0.28124    0.42343   1.00
H3       0.82318    0.35795    0.44109   1.00
H3       0.84364    0.28495    0.42538   1.00
C4       0.99969    0.50022    0.27085   1.00
C4       1.00031    0.49978    0.22915   1.00
C3       0.97018    0.48105    0.29249   1.00
C3       0.99050    0.46604    0.20748   1.00
C3       1.02919    0.51925    0.29262   1.00
C3       1.00999    0.53353    0.20741   1.00
C2       0.99991    0.49987    0.35518   1.00
C2       0.99991    0.49987    0.14482   1.00
C3a      0.97015    0.48080    0.33401   1.00
C3       0.99034    0.46616    0.16618   1.00
C3       1.02924    0.51903    0.33389   1.00
C3a      1.00987    0.53377    0.16597   1.00
H1       0.94683    0.46643    0.27706   1.00
H1       0.98322    0.43922    0.22250   1.00
C5       0.93813    0.46023    0.35590   1.00
H1       0.98269    0.43972    0.15067   1.00
H1       1.05251    0.53368    0.34944   1.00
C5       1.02050    0.57067    0.14465   1.00
H1       1.01665    0.56044    0.22253   1.00
H1       1.05293    0.53379    0.27770   1.00
H2       1.05128    0.57815    0.15163   1.00
H2       1.01872    0.56652    0.11253   1.00
N1       0.99454    0.60258    0.15605   1.00
C6       0.99137    0.61833    0.19190   1.00
C6       0.96972    0.62182    0.13243   1.00
C6       0.96406    0.64788    0.19127   1.00
C6       0.95029    0.65010    0.15344   1.00
H3       1.00788    0.60903    0.21719   1.00
H3       0.96581    0.61564    0.10169   1.00
H3       0.95520    0.66586    0.21564   1.00
H3       0.92854    0.67010    0.14242   1.00
H2       0.94375    0.46295    0.38772   1.00
H2       0.90931    0.47383    0.34999   1.00
N1       0.93663    0.41915    0.34477   1.00
C6       0.94232    0.38622    0.36922   1.00
C6       0.92889    0.40362    0.30715   1.00
C6       0.93825    0.35271    0.34723   1.00
C6       0.93002    0.36340    0.30909   1.00
H3       0.94889    0.38747    0.40008   1.00
H3       0.92343    0.42085    0.28124   1.00
H3       0.94109    0.32318    0.35795   1.00
H3       0.92538    0.34364    0.28495   1.00
