data_IRMOF10_SG202_interpen_Ligand12lp_label_c.

_audit_creation_method             'generated by an auxiliary program of Tobunporous'

_symmetry_space_group_name_H-M     'P 1'
_symmetry_Int_Tables_number        1
_symmetry_cell_setting             triclinic

_cell_length_a                    34.2800
_cell_length_b                    34.2800
_cell_length_c                    34.2800
_cell_angle_alpha                 90.0000
_cell_angle_beta                  90.0000
_cell_angle_gamma                 90.0000

loop_
_atom_site_label
_atom_site_fract_x
_atom_site_fract_y
_atom_site_fract_z
_atom_site_occupancy
O1       0.75000    0.75000    0.75000   1.00
Zn1      0.71720    0.78280    0.78280   1.00
Zn1      0.78280    0.71720    0.78280   1.00
Zn1      0.78280    0.78280    0.71720   1.00
Zn1      0.71720    0.71720    0.71720   1.00
O2       0.72650    0.77350    0.83820   1.00
O2       0.72650    0.83820    0.77350   1.00
O2       0.66180    0.77350    0.77350   1.00
O2       0.77350    0.72650    0.83820   1.00
O2       0.83820    0.72650    0.77350   1.00
O2       0.77350    0.66180    0.77350   1.00
O2       0.77350    0.83820    0.72650   1.00
O2       0.83820    0.77350    0.72650   1.00
O2       0.77350    0.77350    0.66180   1.00
O2       0.66180    0.72650    0.72650   1.00
O2       0.72650    0.66180    0.72650   1.00
O2       0.72650    0.72650    0.66180   1.00
C1       0.75000    0.75000    0.85520   1.00
C1       0.75000    0.85520    0.75000   1.00
C1       0.64480    0.75000    0.75000   1.00
C1       0.85520    0.75000    0.75000   1.00
C1       0.75000    0.64480    0.75000   1.00
C1       0.75000    0.75000    0.64480   1.00
O1       0.25000    0.25000    0.75000   1.00
Zn1      0.21720    0.28280    0.78280   1.00
Zn1      0.28280    0.21720    0.78280   1.00
Zn1      0.28280    0.28280    0.71720   1.00
Zn1      0.21720    0.21720    0.71720   1.00
O2       0.22650    0.27350    0.83820   1.00
O2       0.22650    0.33820    0.77350   1.00
O2       0.16180    0.27350    0.77350   1.00
O2       0.27350    0.22650    0.83820   1.00
O2       0.33820    0.22650    0.77350   1.00
O2       0.27350    0.16180    0.77350   1.00
O2       0.27350    0.33820    0.72650   1.00
O2       0.33820    0.27350    0.72650   1.00
O2       0.27350    0.27350    0.66180   1.00
O2       0.16180    0.22650    0.72650   1.00
O2       0.22650    0.16180    0.72650   1.00
O2       0.22650    0.22650    0.66180   1.00
C1       0.25000    0.25000    0.85520   1.00
C1       0.25000    0.35520    0.75000   1.00
C1       0.14480    0.25000    0.75000   1.00
C1       0.35520    0.25000    0.75000   1.00
C1       0.25000    0.14480    0.75000   1.00
C1       0.25000    0.25000    0.64480   1.00
O1       0.25000    0.75000    0.25000   1.00
Zn1      0.21720    0.78280    0.28280   1.00
Zn1      0.28280    0.71720    0.28280   1.00
Zn1      0.28280    0.78280    0.21720   1.00
Zn1      0.21720    0.71720    0.21720   1.00
O2       0.22650    0.77350    0.33820   1.00
O2       0.22650    0.83820    0.27350   1.00
O2       0.16180    0.77350    0.27350   1.00
O2       0.27350    0.72650    0.33820   1.00
O2       0.33820    0.72650    0.27350   1.00
O2       0.27350    0.66180    0.27350   1.00
O2       0.27350    0.83820    0.22650   1.00
O2       0.33820    0.77350    0.22650   1.00
O2       0.27350    0.77350    0.16180   1.00
O2       0.16180    0.72650    0.22650   1.00
O2       0.22650    0.66180    0.22650   1.00
O2       0.22650    0.72650    0.16180   1.00
C1       0.25000    0.75000    0.35520   1.00
C1       0.25000    0.85520    0.25000   1.00
C1       0.14480    0.75000    0.25000   1.00
C1       0.35520    0.75000    0.25000   1.00
C1       0.25000    0.64480    0.25000   1.00
C1       0.25000    0.75000    0.14480   1.00
O1       0.75000    0.25000    0.25000   1.00
Zn1      0.71720    0.28280    0.28280   1.00
Zn1      0.78280    0.21720    0.28280   1.00
Zn1      0.78280    0.28280    0.21720   1.00
Zn1      0.71720    0.21720    0.21720   1.00
O2       0.72650    0.27350    0.33820   1.00
O2       0.72650    0.33820    0.27350   1.00
O2       0.66180    0.27350    0.27350   1.00
O2       0.77350    0.22650    0.33820   1.00
O2       0.83820    0.22650    0.27350   1.00
O2       0.77350    0.16180    0.27350   1.00
O2       0.77350    0.33820    0.22650   1.00
O2       0.83820    0.27350    0.22650   1.00
O2       0.77350    0.27350    0.16180   1.00
O2       0.66180    0.22650    0.22650   1.00
O2       0.72650    0.16180    0.22650   1.00
O2       0.72650    0.22650    0.16180   1.00
C1       0.75000    0.25000    0.35520   1.00
C1       0.75000    0.35520    0.25000   1.00
C1       0.64480    0.25000    0.25000   1.00
C1       0.85520    0.25000    0.25000   1.00
C1       0.75000    0.14480    0.25000   1.00
C1       0.75000    0.25000    0.14480   1.00
O1       0.25000    0.25000    0.25000   1.00
Zn1      0.28280    0.21720    0.21720   1.00
Zn1      0.21720    0.28280    0.21720   1.00
Zn1      0.21720    0.21720    0.28280   1.00
Zn1      0.28280    0.28280    0.28280   1.00
O2       0.27350    0.22650    0.16180   1.00
O2       0.27350    0.16180    0.22650   1.00
O2       0.33820    0.22650    0.22650   1.00
O2       0.22650    0.27350    0.16180   1.00
O2       0.16180    0.27350    0.22650   1.00
O2       0.22650    0.33820    0.22650   1.00
O2       0.22650    0.16180    0.27350   1.00
O2       0.16180    0.22650    0.27350   1.00
O2       0.22650    0.22650    0.33820   1.00
O2       0.33820    0.27350    0.27350   1.00
O2       0.27350    0.33820    0.27350   1.00
O2       0.27350    0.27350    0.33820   1.00
C1       0.25000    0.25000    0.14480   1.00
C1       0.25000    0.14480    0.25000   1.00
C1       0.35520    0.25000    0.25000   1.00
C1       0.14480    0.25000    0.25000   1.00
C1       0.25000    0.35520    0.25000   1.00
C1       0.25000    0.25000    0.35520   1.00
O1       0.75000    0.75000    0.25000   1.00
Zn1      0.78280    0.71720    0.21720   1.00
Zn1      0.71720    0.78280    0.21720   1.00
Zn1      0.71720    0.71720    0.28280   1.00
Zn1      0.78280    0.78280    0.28280   1.00
O2       0.77350    0.72650    0.16180   1.00
O2       0.77350    0.66180    0.22650   1.00
O2       0.83820    0.72650    0.22650   1.00
O2       0.72650    0.77350    0.16180   1.00
O2       0.66180    0.77350    0.22650   1.00
O2       0.72650    0.83820    0.22650   1.00
O2       0.72650    0.66180    0.27350   1.00
O2       0.66180    0.72650    0.27350   1.00
O2       0.72650    0.72650    0.33820   1.00
O2       0.83820    0.77350    0.27350   1.00
O2       0.77350    0.83820    0.27350   1.00
O2       0.77350    0.77350    0.33820   1.00
C1       0.75000    0.75000    0.14480   1.00
C1       0.75000    0.64480    0.25000   1.00
C1       0.85520    0.75000    0.25000   1.00
C1       0.64480    0.75000    0.25000   1.00
C1       0.75000    0.85520    0.25000   1.00
C1       0.75000    0.75000    0.35520   1.00
O1       0.75000    0.25000    0.75000   1.00
Zn1      0.78280    0.21720    0.71720   1.00
Zn1      0.71720    0.28280    0.71720   1.00
Zn1      0.71720    0.21720    0.78280   1.00
Zn1      0.78280    0.28280    0.78280   1.00
O2       0.77350    0.22650    0.66180   1.00
O2       0.77350    0.16180    0.72650   1.00
O2       0.83820    0.22650    0.72650   1.00
O2       0.72650    0.27350    0.66180   1.00
O2       0.66180    0.27350    0.72650   1.00
O2       0.72650    0.33820    0.72650   1.00
O2       0.72650    0.16180    0.77350   1.00
O2       0.66180    0.22650    0.77350   1.00
O2       0.72650    0.22650    0.83820   1.00
O2       0.83820    0.27350    0.77350   1.00
O2       0.77350    0.33820    0.77350   1.00
O2       0.77350    0.27350    0.83820   1.00
C1       0.75000    0.25000    0.64480   1.00
C1       0.75000    0.14480    0.75000   1.00
C1       0.85520    0.25000    0.75000   1.00
C1       0.64480    0.25000    0.75000   1.00
C1       0.75000    0.35520    0.75000   1.00
C1       0.75000    0.25000    0.85520   1.00
O1       0.25000    0.75000    0.75000   1.00
Zn1      0.28280    0.71720    0.71720   1.00
Zn1      0.21720    0.78280    0.71720   1.00
Zn1      0.21720    0.71720    0.78280   1.00
Zn1      0.28280    0.78280    0.78280   1.00
O2       0.27350    0.72650    0.66180   1.00
O2       0.27350    0.66180    0.72650   1.00
O2       0.33820    0.72650    0.72650   1.00
O2       0.22650    0.77350    0.66180   1.00
O2       0.16180    0.77350    0.72650   1.00
O2       0.22650    0.83820    0.72650   1.00
O2       0.22650    0.66180    0.77350   1.00
O2       0.16180    0.72650    0.77350   1.00
O2       0.22650    0.72650    0.83820   1.00
O2       0.33820    0.77350    0.77350   1.00
O2       0.27350    0.83820    0.77350   1.00
O2       0.27350    0.77350    0.83820   1.00
C1       0.25000    0.75000    0.64480   1.00
C1       0.25000    0.64480    0.75000   1.00
C1       0.35520    0.75000    0.75000   1.00
C1       0.14480    0.75000    0.75000   1.00
C1       0.25000    0.85520    0.75000   1.00
C1       0.25000    0.75000    0.85520   1.00
O1       1.00000    1.00000    1.00000   1.00
Zn1      0.96720    1.03280    1.03280   1.00
Zn1      1.03280    0.96720    1.03280   1.00
Zn1      1.03280    1.03280    0.96720   1.00
Zn1      0.96720    0.96720    0.96720   1.00
O2       0.97650    1.02350    1.08820   1.00
O2       0.97650    1.08820    1.02350   1.00
O2       0.91180    1.02350    1.02350   1.00
O2       1.02350    0.97650    1.08820   1.00
O2       1.08820    0.97650    1.02350   1.00
O2       1.02350    0.91180    1.02350   1.00
O2       1.02350    1.08820    0.97650   1.00
O2       1.08820    1.02350    0.97650   1.00
O2       1.02350    1.02350    0.91180   1.00
O2       0.91180    0.97650    0.97650   1.00
O2       0.97650    0.91180    0.97650   1.00
O2       0.97650    0.97650    0.91180   1.00
C1       1.00000    1.00000    1.10520   1.00
C1       1.00000    1.10520    1.00000   1.00
C1       0.89480    1.00000    1.00000   1.00
C1       1.10520    1.00000    1.00000   1.00
C1       1.00000    0.89480    1.00000   1.00
C1       1.00000    1.00000    0.89480   1.00
O1       0.50000    0.50000    1.00000   1.00
Zn1      0.46720    0.53280    1.03280   1.00
Zn1      0.53280    0.46720    1.03280   1.00
Zn1      0.53280    0.53280    0.96720   1.00
Zn1      0.46720    0.46720    0.96720   1.00
O2       0.47650    0.52350    1.08820   1.00
O2       0.47650    0.58820    1.02350   1.00
O2       0.41180    0.52350    1.02350   1.00
O2       0.52350    0.47650    1.08820   1.00
O2       0.58820    0.47650    1.02350   1.00
O2       0.52350    0.41180    1.02350   1.00
O2       0.52350    0.58820    0.97650   1.00
O2       0.58820    0.52350    0.97650   1.00
O2       0.52350    0.52350    0.91180   1.00
O2       0.41180    0.47650    0.97650   1.00
O2       0.47650    0.41180    0.97650   1.00
O2       0.47650    0.47650    0.91180   1.00
C1       0.50000    0.50000    1.10520   1.00
C1       0.50000    0.60520    1.00000   1.00
C1       0.39480    0.50000    1.00000   1.00
C1       0.60520    0.50000    1.00000   1.00
C1       0.50000    0.39480    1.00000   1.00
C1       0.50000    0.50000    0.89480   1.00
O1       0.50000    1.00000    0.50000   1.00
Zn1      0.46720    1.03280    0.53280   1.00
Zn1      0.53280    0.96720    0.53280   1.00
Zn1      0.53280    1.03280    0.46720   1.00
Zn1      0.46720    0.96720    0.46720   1.00
O2       0.47650    1.02350    0.58820   1.00
O2       0.47650    1.08820    0.52350   1.00
O2       0.41180    1.02350    0.52350   1.00
O2       0.52350    0.97650    0.58820   1.00
O2       0.58820    0.97650    0.52350   1.00
O2       0.52350    0.91180    0.52350   1.00
O2       0.52350    1.08820    0.47650   1.00
O2       0.58820    1.02350    0.47650   1.00
O2       0.52350    1.02350    0.41180   1.00
O2       0.41180    0.97650    0.47650   1.00
O2       0.47650    0.91180    0.47650   1.00
O2       0.47650    0.97650    0.41180   1.00
C1       0.50000    1.00000    0.60520   1.00
C1       0.50000    1.10520    0.50000   1.00
C1       0.39480    1.00000    0.50000   1.00
C1       0.60520    1.00000    0.50000   1.00
C1       0.50000    0.89480    0.50000   1.00
C1       0.50000    1.00000    0.39480   1.00
O1       1.00000    0.50000    0.50000   1.00
Zn1      0.96720    0.53280    0.53280   1.00
Zn1      1.03280    0.46720    0.53280   1.00
Zn1      1.03280    0.53280    0.46720   1.00
Zn1      0.96720    0.46720    0.46720   1.00
O2       0.97650    0.52350    0.58820   1.00
O2       0.97650    0.58820    0.52350   1.00
O2       0.91180    0.52350    0.52350   1.00
O2       1.02350    0.47650    0.58820   1.00
O2       1.08820    0.47650    0.52350   1.00
O2       1.02350    0.41180    0.52350   1.00
O2       1.02350    0.58820    0.47650   1.00
O2       1.08820    0.52350    0.47650   1.00
O2       1.02350    0.52350    0.41180   1.00
O2       0.91180    0.47650    0.47650   1.00
O2       0.97650    0.41180    0.47650   1.00
O2       0.97650    0.47650    0.41180   1.00
C1       1.00000    0.50000    0.60520   1.00
C1       1.00000    0.60520    0.50000   1.00
C1       0.89480    0.50000    0.50000   1.00
C1       1.10520    0.50000    0.50000   1.00
C1       1.00000    0.39480    0.50000   1.00
C1       1.00000    0.50000    0.39480   1.00
O1       0.50000    0.50000    0.50000   1.00
Zn1      0.53280    0.46720    0.46720   1.00
Zn1      0.46720    0.53280    0.46720   1.00
Zn1      0.46720    0.46720    0.53280   1.00
Zn1      0.53280    0.53280    0.53280   1.00
O2       0.52350    0.47650    0.41180   1.00
O2       0.52350    0.41180    0.47650   1.00
O2       0.58820    0.47650    0.47650   1.00
O2       0.47650    0.52350    0.41180   1.00
O2       0.41180    0.52350    0.47650   1.00
O2       0.47650    0.58820    0.47650   1.00
O2       0.47650    0.41180    0.52350   1.00
O2       0.41180    0.47650    0.52350   1.00
O2       0.47650    0.47650    0.58820   1.00
O2       0.58820    0.52350    0.52350   1.00
O2       0.52350    0.58820    0.52350   1.00
O2       0.52350    0.52350    0.58820   1.00
C1       0.50000    0.50000    0.39480   1.00
C1       0.50000    0.39480    0.50000   1.00
C1       0.60520    0.50000    0.50000   1.00
C1       0.39480    0.50000    0.50000   1.00
C1       0.50000    0.60520    0.50000   1.00
C1       0.50000    0.50000    0.60520   1.00
O1       1.00000    1.00000    0.50000   1.00
Zn1      1.03280    0.96720    0.46720   1.00
Zn1      0.96720    1.03280    0.46720   1.00
Zn1      0.96720    0.96720    0.53280   1.00
Zn1      1.03280    1.03280    0.53280   1.00
O2       1.02350    0.97650    0.41180   1.00
O2       1.02350    0.91180    0.47650   1.00
O2       1.08820    0.97650    0.47650   1.00
O2       0.97650    1.02350    0.41180   1.00
O2       0.91180    1.02350    0.47650   1.00
O2       0.97650    1.08820    0.47650   1.00
O2       0.97650    0.91180    0.52350   1.00
O2       0.91180    0.97650    0.52350   1.00
O2       0.97650    0.97650    0.58820   1.00
O2       1.08820    1.02350    0.52350   1.00
O2       1.02350    1.08820    0.52350   1.00
O2       1.02350    1.02350    0.58820   1.00
C1       1.00000    1.00000    0.39480   1.00
C1       1.00000    0.89480    0.50000   1.00
C1       1.10520    1.00000    0.50000   1.00
C1       0.89480    1.00000    0.50000   1.00
C1       1.00000    1.10520    0.50000   1.00
C1       1.00000    1.00000    0.60520   1.00
O1       1.00000    0.50000    1.00000   1.00
Zn1      1.03280    0.46720    0.96720   1.00
Zn1      0.96720    0.53280    0.96720   1.00
Zn1      0.96720    0.46720    1.03280   1.00
Zn1      1.03280    0.53280    1.03280   1.00
O2       1.02350    0.47650    0.91180   1.00
O2       1.02350    0.41180    0.97650   1.00
O2       1.08820    0.47650    0.97650   1.00
O2       0.97650    0.52350    0.91180   1.00
O2       0.91180    0.52350    0.97650   1.00
O2       0.97650    0.58820    0.97650   1.00
O2       0.97650    0.41180    1.02350   1.00
O2       0.91180    0.47650    1.02350   1.00
O2       0.97650    0.47650    1.08820   1.00
O2       1.08820    0.52350    1.02350   1.00
O2       1.02350    0.58820    1.02350   1.00
O2       1.02350    0.52350    1.08820   1.00
C1       1.00000    0.50000    0.89480   1.00
C1       1.00000    0.39480    1.00000   1.00
C1       1.10520    0.50000    1.00000   1.00
C1       0.89480    0.50000    1.00000   1.00
C1       1.00000    0.60520    1.00000   1.00
C1       1.00000    0.50000    1.10520   1.00
O1       0.50000    1.00000    1.00000   1.00
Zn1      0.53280    0.96720    0.96720   1.00
Zn1      0.46720    1.03280    0.96720   1.00
Zn1      0.46720    0.96720    1.03280   1.00
Zn1      0.53280    1.03280    1.03280   1.00
O2       0.52350    0.97650    0.91180   1.00
O2       0.52350    0.91180    0.97650   1.00
O2       0.58820    0.97650    0.97650   1.00
O2       0.47650    1.02350    0.91180   1.00
O2       0.41180    1.02350    0.97650   1.00
O2       0.47650    1.08820    0.97650   1.00
O2       0.47650    0.91180    1.02350   1.00
O2       0.41180    0.97650    1.02350   1.00
O2       0.47650    0.97650    1.08820   1.00
O2       0.58820    1.02350    1.02350   1.00
O2       0.52350    1.08820    1.02350   1.00
O2       0.52350    1.02350    1.08820   1.00
C1       0.50000    1.00000    0.89480   1.00
C1       0.50000    0.89480    1.00000   1.00
C1       0.60520    1.00000    1.00000   1.00
C1       0.39480    1.00000    1.00000   1.00
C1       0.50000    1.10520    1.00000   1.00
C1       0.50000    1.00000    1.10520   1.00
C4       0.74980    0.75075    1.02067   1.00
C4       0.75020    0.74925    0.97933   1.00
C3       0.78281    0.76340    1.04244   1.00
C3       0.78511    0.75481    0.95756   1.00
C4       0.71586    0.73913    1.04150   1.00
C4       0.71500    0.74233    0.95850   1.00
C2       0.75061    0.75015    1.10352   1.00
C2       0.75060    0.75018    0.89648   1.00
C3       0.78314    0.76268    1.08310   1.00
C3       0.78504    0.75559    0.91690   1.00
C3       0.71713    0.73901    1.08306   1.00
C3       0.71604    0.74308    0.91694   1.00
H1       0.80867    0.77497    1.02888   1.00
H1       0.81329    0.75772    0.97112   1.00
C5       0.68143    0.72853    1.02065   1.00
C5       0.67989    0.73430    0.97935   1.00
H1       0.80883    0.77219    1.09886   1.00
H1       0.81204    0.76021    0.90114   1.00
H1       0.69226    0.73093    1.10053   1.00
H1       0.69046    0.73763    0.89947   1.00
C6       0.64724    0.70976    1.04234   1.00
C6       0.64089    0.73345    0.95766   1.00
H2       0.63251    0.68786    1.02358   1.00
H2       0.65709    0.69196    1.06737   1.00
C6       0.61850    0.74079    1.05724   1.00
H2       0.61718    0.74504    0.97642   1.00
H2       0.64052    0.75379    0.93263   1.00
C6       0.63152    0.69220    0.94276   1.00
H2       0.60716    0.75881    1.03274   1.00
C6       0.58429    0.72158    1.07832   1.00
H2       0.63369    0.76106    1.07760   1.00
C6       0.59230    0.69172    0.92168   1.00
H2       0.65482    0.68224    0.92240   1.00
H2       0.63072    0.67093    0.96726   1.00
H2       0.56822    0.70186    1.05822   1.00
H2       0.59477    0.70448    1.10380   1.00
H2       0.56378    0.74431    1.08898   1.00
H2       0.56851    0.70076    0.94178   1.00
H2       0.59282    0.71177    0.89620   1.00
H2       0.58590    0.66179    0.91102   1.00
C4       0.75075    1.02067    0.74980   1.00
C4       0.74925    0.97933    0.75020   1.00
C3       0.76340    1.04244    0.78281   1.00
C3       0.75481    0.95756    0.78511   1.00
C4       0.73913    1.04150    0.71586   1.00
C4       0.74233    0.95850    0.71500   1.00
C2       0.75015    1.10352    0.75061   1.00
C2       0.75018    0.89648    0.75060   1.00
C3       0.76268    1.08310    0.78314   1.00
C3       0.75559    0.91690    0.78504   1.00
C3       0.73901    1.08306    0.71713   1.00
C3       0.74308    0.91694    0.71604   1.00
H1       0.77497    1.02888    0.80867   1.00
H1       0.75772    0.97112    0.81329   1.00
C5       0.72853    1.02065    0.68143   1.00
C5       0.73430    0.97935    0.67989   1.00
H1       0.77219    1.09886    0.80883   1.00
H1       0.76021    0.90114    0.81204   1.00
H1       0.73093    1.10053    0.69226   1.00
H1       0.73763    0.89947    0.69046   1.00
C6       0.70976    1.04234    0.64724   1.00
C6       0.73345    0.95766    0.64089   1.00
H2       0.68786    1.02358    0.63251   1.00
H2       0.69196    1.06737    0.65709   1.00
C6       0.74079    1.05724    0.61850   1.00
H2       0.74504    0.97642    0.61718   1.00
H2       0.75379    0.93263    0.64052   1.00
C6       0.69220    0.94276    0.63152   1.00
H2       0.75881    1.03274    0.60716   1.00
C6       0.72158    1.07832    0.58429   1.00
H2       0.76106    1.07760    0.63369   1.00
C6       0.69172    0.92168    0.59230   1.00
H2       0.68224    0.92240    0.65482   1.00
H2       0.67093    0.96726    0.63072   1.00
H2       0.70186    1.05822    0.56822   1.00
H2       0.70448    1.10380    0.59477   1.00
H2       0.74431    1.08898    0.56378   1.00
H2       0.70076    0.94178    0.56851   1.00
H2       0.71177    0.89620    0.59282   1.00
H2       0.66179    0.91102    0.58590   1.00
C4       0.47933    0.74980    0.74925   1.00
C4       0.52067    0.75020    0.75075   1.00
C3       0.45756    0.78281    0.73660   1.00
C3       0.54244    0.78511    0.74519   1.00
C4       0.45850    0.71586    0.76087   1.00
C4       0.54150    0.71500    0.75767   1.00
C2       0.39648    0.75061    0.74985   1.00
C2       0.60352    0.75060    0.74982   1.00
C3       0.41690    0.78314    0.73732   1.00
C3       0.58310    0.78504    0.74441   1.00
C3       0.41694    0.71713    0.76099   1.00
C3       0.58306    0.71604    0.75692   1.00
H1       0.47112    0.80867    0.72503   1.00
H1       0.52888    0.81329    0.74228   1.00
C5       0.47935    0.68143    0.77147   1.00
C5       0.52065    0.67989    0.76570   1.00
H1       0.40114    0.80883    0.72781   1.00
H1       0.59886    0.81204    0.73979   1.00
H1       0.39947    0.69226    0.76907   1.00
H1       0.60053    0.69046    0.76237   1.00
C6       0.45766    0.64724    0.79024   1.00
C6       0.54234    0.64089    0.76655   1.00
H2       0.47642    0.63251    0.81214   1.00
H2       0.43263    0.65709    0.80804   1.00
C6       0.44276    0.61850    0.75921   1.00
H2       0.52358    0.61718    0.75496   1.00
H2       0.56737    0.64052    0.74621   1.00
C6       0.55724    0.63152    0.80780   1.00
H2       0.46726    0.60716    0.74119   1.00
C6       0.42168    0.58429    0.77842   1.00
H2       0.42240    0.63369    0.73894   1.00
C6       0.57832    0.59230    0.80828   1.00
H2       0.57760    0.65482    0.81776   1.00
H2       0.53274    0.63072    0.82907   1.00
H2       0.44178    0.56822    0.79814   1.00
H2       0.39620    0.59477    0.79552   1.00
H2       0.41102    0.56378    0.75569   1.00
H2       0.55822    0.56851    0.79924   1.00
H2       0.60380    0.59282    0.78823   1.00
H2       0.58898    0.58590    0.83821   1.00
C4       1.02067    0.74980    0.75075   1.00
C4       0.97933    0.75020    0.74925   1.00
C3       1.04244    0.78281    0.76340   1.00
C3       0.95756    0.78511    0.75481   1.00
C4       1.04150    0.71586    0.73913   1.00
C4       0.95850    0.71500    0.74233   1.00
C2       1.10352    0.75061    0.75015   1.00
C2       0.89648    0.75060    0.75018   1.00
C3       1.08310    0.78314    0.76268   1.00
C3       0.91690    0.78504    0.75559   1.00
C3       1.08306    0.71713    0.73901   1.00
C3       0.91694    0.71604    0.74308   1.00
H1       1.02888    0.80867    0.77497   1.00
H1       0.97112    0.81329    0.75772   1.00
C5       1.02065    0.68143    0.72853   1.00
C5       0.97935    0.67989    0.73430   1.00
H1       1.09886    0.80883    0.77219   1.00
H1       0.90114    0.81204    0.76021   1.00
H1       1.10053    0.69226    0.73093   1.00
H1       0.89947    0.69046    0.73763   1.00
C6       1.04234    0.64724    0.70976   1.00
C6       0.95766    0.64089    0.73345   1.00
H2       1.02358    0.63251    0.68786   1.00
H2       1.06737    0.65709    0.69196   1.00
C6       1.05724    0.61850    0.74079   1.00
H2       0.97642    0.61718    0.74504   1.00
H2       0.93263    0.64052    0.75379   1.00
C6       0.94276    0.63152    0.69220   1.00
H2       1.03274    0.60716    0.75881   1.00
C6       1.07832    0.58429    0.72158   1.00
H2       1.07760    0.63369    0.76106   1.00
C6       0.92168    0.59230    0.69172   1.00
H2       0.92240    0.65482    0.68224   1.00
H2       0.96726    0.63072    0.67093   1.00
H2       1.05822    0.56822    0.70186   1.00
H2       1.10380    0.59477    0.70448   1.00
H2       1.08898    0.56378    0.74431   1.00
H2       0.94178    0.56851    0.70076   1.00
H2       0.89620    0.59282    0.71177   1.00
H2       0.91102    0.58590    0.66179   1.00
C4       0.74925    0.47933    0.74980   1.00
C4       0.75075    0.52067    0.75020   1.00
C3       0.73660    0.45756    0.78281   1.00
C3       0.74519    0.54244    0.78511   1.00
C4       0.76087    0.45850    0.71586   1.00
C4       0.75767    0.54150    0.71500   1.00
C2       0.74985    0.39648    0.75061   1.00
C2       0.74982    0.60352    0.75060   1.00
C3       0.73732    0.41690    0.78314   1.00
C3       0.74441    0.58310    0.78504   1.00
C3       0.76099    0.41694    0.71713   1.00
C3       0.75692    0.58306    0.71604   1.00
H1       0.72503    0.47112    0.80867   1.00
H1       0.74228    0.52888    0.81329   1.00
C5       0.77147    0.47935    0.68143   1.00
C5       0.76570    0.52065    0.67989   1.00
H1       0.72781    0.40114    0.80883   1.00
H1       0.73979    0.59886    0.81204   1.00
H1       0.76907    0.39947    0.69226   1.00
H1       0.76237    0.60053    0.69046   1.00
C6       0.79024    0.45766    0.64724   1.00
C6       0.76655    0.54234    0.64089   1.00
H2       0.81214    0.47642    0.63251   1.00
H2       0.80804    0.43263    0.65709   1.00
C6       0.75921    0.44276    0.61850   1.00
H2       0.75496    0.52358    0.61718   1.00
H2       0.74621    0.56737    0.64052   1.00
C6       0.80780    0.55724    0.63152   1.00
H2       0.74119    0.46726    0.60716   1.00
C6       0.77842    0.42168    0.58429   1.00
H2       0.73894    0.42240    0.63369   1.00
C6       0.80828    0.57832    0.59230   1.00
H2       0.81776    0.57760    0.65482   1.00
H2       0.82907    0.53274    0.63072   1.00
H2       0.79814    0.44178    0.56822   1.00
H2       0.79552    0.39620    0.59477   1.00
H2       0.75569    0.41102    0.56378   1.00
H2       0.79924    0.55822    0.56851   1.00
H2       0.78823    0.60380    0.59282   1.00
H2       0.83821    0.58898    0.58590   1.00
C4       0.74980    0.74925    0.47933   1.00
C4       0.75020    0.75075    0.52067   1.00
C3       0.78281    0.73660    0.45756   1.00
C3       0.78511    0.74519    0.54244   1.00
C4       0.71586    0.76087    0.45850   1.00
C4       0.71500    0.75767    0.54150   1.00
C2       0.75061    0.74985    0.39648   1.00
C2       0.75060    0.74982    0.60352   1.00
C3       0.78314    0.73732    0.41690   1.00
C3       0.78504    0.74441    0.58310   1.00
C3       0.71713    0.76099    0.41694   1.00
C3       0.71604    0.75692    0.58306   1.00
H1       0.80867    0.72503    0.47112   1.00
H1       0.81329    0.74228    0.52888   1.00
C5       0.68143    0.77147    0.47935   1.00
C5       0.67989    0.76570    0.52065   1.00
H1       0.80883    0.72781    0.40114   1.00
H1       0.81204    0.73979    0.59886   1.00
H1       0.69226    0.76907    0.39947   1.00
H1       0.69046    0.76237    0.60053   1.00
C6       0.64724    0.79024    0.45766   1.00
C6       0.64089    0.76655    0.54234   1.00
H2       0.63251    0.81214    0.47642   1.00
H2       0.65709    0.80804    0.43263   1.00
C6       0.61850    0.75921    0.44276   1.00
H2       0.61718    0.75496    0.52358   1.00
H2       0.64052    0.74621    0.56737   1.00
C6       0.63152    0.80780    0.55724   1.00
H2       0.60716    0.74119    0.46726   1.00
C6       0.58429    0.77842    0.42168   1.00
H2       0.63369    0.73894    0.42240   1.00
C6       0.59230    0.80828    0.57832   1.00
H2       0.65482    0.81776    0.57760   1.00
H2       0.63072    0.82907    0.53274   1.00
H2       0.56822    0.79814    0.44178   1.00
H2       0.59477    0.79552    0.39620   1.00
H2       0.56378    0.75569    0.41102   1.00
H2       0.56851    0.79924    0.55822   1.00
H2       0.59282    0.78823    0.60380   1.00
H2       0.58590    0.83821    0.58898   1.00
C4       0.24980    0.25075    1.02067   1.00
C4       0.25020    0.24925    0.97933   1.00
C3       0.28281    0.26340    1.04244   1.00
C3       0.28511    0.25481    0.95756   1.00
C4       0.21586    0.23913    1.04150   1.00
C4       0.21500    0.24233    0.95850   1.00
C2       0.25061    0.25015    1.10352   1.00
C2       0.25060    0.25018    0.89648   1.00
C3       0.28314    0.26268    1.08310   1.00
C3       0.28504    0.25559    0.91690   1.00
C3       0.21713    0.23901    1.08306   1.00
C3       0.21604    0.24308    0.91694   1.00
H1       0.30867    0.27497    1.02888   1.00
H1       0.31329    0.25772    0.97112   1.00
C5       0.18143    0.22853    1.02065   1.00
C5       0.17989    0.23430    0.97935   1.00
H1       0.30883    0.27219    1.09886   1.00
H1       0.31204    0.26021    0.90114   1.00
H1       0.19226    0.23093    1.10053   1.00
H1       0.19046    0.23763    0.89947   1.00
C6       0.14724    0.20976    1.04234   1.00
C6       0.14089    0.23345    0.95766   1.00
H2       0.13251    0.18786    1.02358   1.00
H2       0.15709    0.19196    1.06737   1.00
C6       0.11850    0.24079    1.05724   1.00
H2       0.11718    0.24504    0.97642   1.00
H2       0.14052    0.25379    0.93263   1.00
C6       0.13152    0.19220    0.94276   1.00
H2       0.10716    0.25881    1.03274   1.00
C6       0.08429    0.22158    1.07832   1.00
H2       0.13369    0.26106    1.07760   1.00
C6       0.09230    0.19172    0.92168   1.00
H2       0.15482    0.18224    0.92240   1.00
H2       0.13072    0.17093    0.96726   1.00
H2       0.06822    0.20186    1.05822   1.00
H2       0.09477    0.20448    1.10380   1.00
H2       0.06378    0.24431    1.08898   1.00
H2       0.06851    0.20076    0.94178   1.00
H2       0.09282    0.21177    0.89620   1.00
H2       0.08590    0.16179    0.91102   1.00
C4       0.25075    0.52067    0.74980   1.00
C4       0.24925    0.47933    0.75020   1.00
C3       0.26340    0.54244    0.78281   1.00
C3       0.25481    0.45756    0.78511   1.00
C4       0.23913    0.54150    0.71586   1.00
C4       0.24233    0.45850    0.71500   1.00
C2       0.25015    0.60352    0.75061   1.00
C2       0.25018    0.39648    0.75060   1.00
C3       0.26268    0.58310    0.78314   1.00
C3       0.25559    0.41690    0.78504   1.00
C3       0.23901    0.58306    0.71713   1.00
C3       0.24308    0.41694    0.71604   1.00
H1       0.27497    0.52888    0.80867   1.00
H1       0.25772    0.47112    0.81329   1.00
C5       0.22853    0.52065    0.68143   1.00
C5       0.23430    0.47935    0.67989   1.00
H1       0.27219    0.59886    0.80883   1.00
H1       0.26021    0.40114    0.81204   1.00
H1       0.23093    0.60053    0.69226   1.00
H1       0.23763    0.39947    0.69046   1.00
C6       0.20976    0.54234    0.64724   1.00
C6       0.23345    0.45766    0.64089   1.00
H2       0.18786    0.52358    0.63251   1.00
H2       0.19196    0.56737    0.65709   1.00
C6       0.24079    0.55724    0.61850   1.00
H2       0.24504    0.47642    0.61718   1.00
H2       0.25379    0.43263    0.64052   1.00
C6       0.19220    0.44276    0.63152   1.00
H2       0.25881    0.53274    0.60716   1.00
C6       0.22158    0.57832    0.58429   1.00
H2       0.26106    0.57760    0.63369   1.00
C6       0.19172    0.42168    0.59230   1.00
H2       0.18224    0.42240    0.65482   1.00
H2       0.17093    0.46726    0.63072   1.00
H2       0.20186    0.55822    0.56822   1.00
H2       0.20448    0.60380    0.59477   1.00
H2       0.24431    0.58898    0.56378   1.00
H2       0.20076    0.44178    0.56851   1.00
H2       0.21177    0.39620    0.59282   1.00
H2       0.16179    0.41102    0.58590   1.00
C4       -0.02067   0.24980    0.74925   1.00
C4       0.02067    0.25020    0.75075   1.00
C3       -0.04244   0.28281    0.73660   1.00
C3       0.04244    0.28511    0.74519   1.00
C4       -0.04150   0.21586    0.76087   1.00
C4       0.04150    0.21500    0.75767   1.00
C2       -0.10352   0.25061    0.74985   1.00
C2       0.10352    0.25060    0.74982   1.00
C3       -0.08310   0.28314    0.73732   1.00
C3       0.08310    0.28504    0.74441   1.00
C3       -0.08306   0.21713    0.76099   1.00
C3       0.08306    0.21604    0.75692   1.00
H1       -0.02888   0.30867    0.72503   1.00
H1       0.02888    0.31329    0.74228   1.00
C5       -0.02065   0.18143    0.77147   1.00
C5       0.02065    0.17989    0.76570   1.00
H1       -0.09886   0.30883    0.72781   1.00
H1       0.09886    0.31204    0.73979   1.00
H1       -0.10053   0.19226    0.76907   1.00
H1       0.10053    0.19046    0.76237   1.00
C6       -0.04234   0.14724    0.79024   1.00
C6       0.04234    0.14089    0.76655   1.00
H2       -0.02358   0.13251    0.81214   1.00
H2       -0.06737   0.15709    0.80804   1.00
C6       -0.05724   0.11850    0.75921   1.00
H2       0.02358    0.11718    0.75496   1.00
H2       0.06737    0.14052    0.74621   1.00
C6       0.05724    0.13152    0.80780   1.00
H2       -0.03274   0.10716    0.74119   1.00
C6       -0.07832   0.08429    0.77842   1.00
H2       -0.07760   0.13369    0.73894   1.00
C6       0.07832    0.09230    0.80828   1.00
H2       0.07760    0.15482    0.81776   1.00
H2       0.03274    0.13072    0.82907   1.00
H2       -0.05822   0.06822    0.79814   1.00
H2       -0.10380   0.09477    0.79552   1.00
H2       -0.08898   0.06378    0.75569   1.00
H2       0.05822    0.06851    0.79924   1.00
H2       0.10380    0.09282    0.78823   1.00
H2       0.08898    0.08590    0.83821   1.00
C4       0.52067    0.24980    0.75075   1.00
C4       0.47933    0.25020    0.74925   1.00
C3       0.54244    0.28281    0.76340   1.00
C3       0.45756    0.28511    0.75481   1.00
C4       0.54150    0.21586    0.73913   1.00
C4       0.45850    0.21500    0.74233   1.00
C2       0.60352    0.25061    0.75015   1.00
C2       0.39648    0.25060    0.75018   1.00
C3       0.58310    0.28314    0.76268   1.00
C3       0.41690    0.28504    0.75559   1.00
C3       0.58306    0.21713    0.73901   1.00
C3       0.41694    0.21604    0.74308   1.00
H1       0.52888    0.30867    0.77497   1.00
H1       0.47112    0.31329    0.75772   1.00
C5       0.52065    0.18143    0.72853   1.00
C5       0.47935    0.17989    0.73430   1.00
H1       0.59886    0.30883    0.77219   1.00
H1       0.40114    0.31204    0.76021   1.00
H1       0.60053    0.19226    0.73093   1.00
H1       0.39947    0.19046    0.73763   1.00
C6       0.54234    0.14724    0.70976   1.00
C6       0.45766    0.14089    0.73345   1.00
H2       0.52358    0.13251    0.68786   1.00
H2       0.56737    0.15709    0.69196   1.00
C6       0.55724    0.11850    0.74079   1.00
H2       0.47642    0.11718    0.74504   1.00
H2       0.43263    0.14052    0.75379   1.00
C6       0.44276    0.13152    0.69220   1.00
H2       0.53274    0.10716    0.75881   1.00
C6       0.57832    0.08429    0.72158   1.00
H2       0.57760    0.13369    0.76106   1.00
C6       0.42168    0.09230    0.69172   1.00
H2       0.42240    0.15482    0.68224   1.00
H2       0.46726    0.13072    0.67093   1.00
H2       0.55822    0.06822    0.70186   1.00
H2       0.60380    0.09477    0.70448   1.00
H2       0.58898    0.06378    0.74431   1.00
H2       0.44178    0.06851    0.70076   1.00
H2       0.39620    0.09282    0.71177   1.00
H2       0.41102    0.08590    0.66179   1.00
C4       0.24925    -0.02067   0.74980   1.00
C4       0.25075    0.02067    0.75020   1.00
C3       0.23660    -0.04244   0.78281   1.00
C3       0.24519    0.04244    0.78511   1.00
C4       0.26087    -0.04150   0.71586   1.00
C4       0.25767    0.04150    0.71500   1.00
C2       0.24985    -0.10352   0.75061   1.00
C2       0.24982    0.10352    0.75060   1.00
C3       0.23732    -0.08310   0.78314   1.00
C3       0.24441    0.08310    0.78504   1.00
C3       0.26099    -0.08306   0.71713   1.00
C3       0.25692    0.08306    0.71604   1.00
H1       0.22503    -0.02888   0.80867   1.00
H1       0.24228    0.02888    0.81329   1.00
C5       0.27147    -0.02065   0.68143   1.00
C5       0.26570    0.02065    0.67989   1.00
H1       0.22781    -0.09886   0.80883   1.00
H1       0.23979    0.09886    0.81204   1.00
H1       0.26907    -0.10053   0.69226   1.00
H1       0.26237    0.10053    0.69046   1.00
C6       0.29024    -0.04234   0.64724   1.00
C6       0.26655    0.04234    0.64089   1.00
H2       0.31214    -0.02358   0.63251   1.00
H2       0.30804    -0.06737   0.65709   1.00
C6       0.25921    -0.05724   0.61850   1.00
H2       0.25496    0.02358    0.61718   1.00
H2       0.24621    0.06737    0.64052   1.00
C6       0.30780    0.05724    0.63152   1.00
H2       0.24119    -0.03274   0.60716   1.00
C6       0.27842    -0.07832   0.58429   1.00
H2       0.23894    -0.07760   0.63369   1.00
C6       0.30828    0.07832    0.59230   1.00
H2       0.31776    0.07760    0.65482   1.00
H2       0.32907    0.03274    0.63072   1.00
H2       0.29814    -0.05822   0.56822   1.00
H2       0.29552    -0.10380   0.59477   1.00
H2       0.25569    -0.08898   0.56378   1.00
H2       0.29924    0.05822    0.56851   1.00
H2       0.28823    0.10380    0.59282   1.00
H2       0.33821    0.08898    0.58590   1.00
C4       0.24980    0.24925    0.47933   1.00
C4       0.25020    0.25075    0.52067   1.00
C3       0.28281    0.23660    0.45756   1.00
C3       0.28511    0.24519    0.54244   1.00
C4       0.21586    0.26087    0.45850   1.00
C4       0.21500    0.25767    0.54150   1.00
C2       0.25061    0.24985    0.39648   1.00
C2       0.25060    0.24982    0.60352   1.00
C3       0.28314    0.23732    0.41690   1.00
C3       0.28504    0.24441    0.58310   1.00
C3       0.21713    0.26099    0.41694   1.00
C3       0.21604    0.25692    0.58306   1.00
H1       0.30867    0.22503    0.47112   1.00
H1       0.31329    0.24228    0.52888   1.00
C5       0.18143    0.27147    0.47935   1.00
C5       0.17989    0.26570    0.52065   1.00
H1       0.30883    0.22781    0.40114   1.00
H1       0.31204    0.23979    0.59886   1.00
H1       0.19226    0.26907    0.39947   1.00
H1       0.19046    0.26237    0.60053   1.00
C6       0.14724    0.29024    0.45766   1.00
C6       0.14089    0.26655    0.54234   1.00
H2       0.13251    0.31214    0.47642   1.00
H2       0.15709    0.30804    0.43263   1.00
C6       0.11850    0.25921    0.44276   1.00
H2       0.11718    0.25496    0.52358   1.00
H2       0.14052    0.24621    0.56737   1.00
C6       0.13152    0.30780    0.55724   1.00
H2       0.10716    0.24119    0.46726   1.00
C6       0.08429    0.27842    0.42168   1.00
H2       0.13369    0.23894    0.42240   1.00
C6       0.09230    0.30828    0.57832   1.00
H2       0.15482    0.31776    0.57760   1.00
H2       0.13072    0.32907    0.53274   1.00
H2       0.06822    0.29814    0.44178   1.00
H2       0.09477    0.29552    0.39620   1.00
H2       0.06378    0.25569    0.41102   1.00
H2       0.06851    0.29924    0.55822   1.00
H2       0.09282    0.28823    0.60380   1.00
H2       0.08590    0.33821    0.58898   1.00
C4       0.24980    0.75075    0.52067   1.00
C4       0.25020    0.74925    0.47933   1.00
C3       0.28281    0.76340    0.54244   1.00
C3       0.28511    0.75481    0.45756   1.00
C4       0.21586    0.73913    0.54150   1.00
C4       0.21500    0.74233    0.45850   1.00
C2       0.25061    0.75015    0.60352   1.00
C2       0.25060    0.75018    0.39648   1.00
C3       0.28314    0.76268    0.58310   1.00
C3       0.28504    0.75559    0.41690   1.00
C3       0.21713    0.73901    0.58306   1.00
C3       0.21604    0.74308    0.41694   1.00
H1       0.30867    0.77497    0.52888   1.00
H1       0.31329    0.75772    0.47112   1.00
C5       0.18143    0.72853    0.52065   1.00
C5       0.17989    0.73430    0.47935   1.00
H1       0.30883    0.77219    0.59886   1.00
H1       0.31204    0.76021    0.40114   1.00
H1       0.19226    0.73093    0.60053   1.00
H1       0.19046    0.73763    0.39947   1.00
C6       0.14724    0.70976    0.54234   1.00
C6       0.14089    0.73345    0.45766   1.00
H2       0.13251    0.68786    0.52358   1.00
H2       0.15709    0.69196    0.56737   1.00
C6       0.11850    0.74079    0.55724   1.00
H2       0.11718    0.74504    0.47642   1.00
H2       0.14052    0.75379    0.43263   1.00
C6       0.13152    0.69220    0.44276   1.00
H2       0.10716    0.75881    0.53274   1.00
C6       0.08429    0.72158    0.57832   1.00
H2       0.13369    0.76106    0.57760   1.00
C6       0.09230    0.69172    0.42168   1.00
H2       0.15482    0.68224    0.42240   1.00
H2       0.13072    0.67093    0.46726   1.00
H2       0.06822    0.70186    0.55822   1.00
H2       0.09477    0.70448    0.60380   1.00
H2       0.06378    0.74431    0.58898   1.00
H2       0.06851    0.70076    0.44178   1.00
H2       0.09282    0.71177    0.39620   1.00
H2       0.08590    0.66179    0.41102   1.00
C4       0.25075    1.02067    0.24980   1.00
C4       0.24925    0.97933    0.25020   1.00
C3       0.26340    1.04244    0.28281   1.00
C3       0.25481    0.95756    0.28511   1.00
C4       0.23913    1.04150    0.21586   1.00
C4       0.24233    0.95850    0.21500   1.00
C2       0.25015    1.10352    0.25061   1.00
C2       0.25018    0.89648    0.25060   1.00
C3       0.26268    1.08310    0.28314   1.00
C3       0.25559    0.91690    0.28504   1.00
C3       0.23901    1.08306    0.21713   1.00
C3       0.24308    0.91694    0.21604   1.00
H1       0.27497    1.02888    0.30867   1.00
H1       0.25772    0.97112    0.31329   1.00
C5       0.22853    1.02065    0.18143   1.00
C5       0.23430    0.97935    0.17989   1.00
H1       0.27219    1.09886    0.30883   1.00
H1       0.26021    0.90114    0.31204   1.00
H1       0.23093    1.10053    0.19226   1.00
H1       0.23763    0.89947    0.19046   1.00
C6       0.20976    1.04234    0.14724   1.00
C6       0.23345    0.95766    0.14089   1.00
H2       0.18786    1.02358    0.13251   1.00
H2       0.19196    1.06737    0.15709   1.00
C6       0.24079    1.05724    0.11850   1.00
H2       0.24504    0.97642    0.11718   1.00
H2       0.25379    0.93263    0.14052   1.00
C6       0.19220    0.94276    0.13152   1.00
H2       0.25881    1.03274    0.10716   1.00
C6       0.22158    1.07832    0.08429   1.00
H2       0.26106    1.07760    0.13369   1.00
C6       0.19172    0.92168    0.09230   1.00
H2       0.18224    0.92240    0.15482   1.00
H2       0.17093    0.96726    0.13072   1.00
H2       0.20186    1.05822    0.06822   1.00
H2       0.20448    1.10380    0.09477   1.00
H2       0.24431    1.08898    0.06378   1.00
H2       0.20076    0.94178    0.06851   1.00
H2       0.21177    0.89620    0.09282   1.00
H2       0.16179    0.91102    0.08590   1.00
C4       -0.02067   0.74980    0.24925   1.00
C4       0.02067    0.75020    0.25075   1.00
C3       -0.04244   0.78281    0.23660   1.00
C3       0.04244    0.78511    0.24519   1.00
C4       -0.04150   0.71586    0.26087   1.00
C4       0.04150    0.71500    0.25767   1.00
C2       -0.10352   0.75061    0.24985   1.00
C2       0.10352    0.75060    0.24982   1.00
C3       -0.08310   0.78314    0.23732   1.00
C3       0.08310    0.78504    0.24441   1.00
C3       -0.08306   0.71713    0.26099   1.00
C3       0.08306    0.71604    0.25692   1.00
H1       -0.02888   0.80867    0.22503   1.00
H1       0.02888    0.81329    0.24228   1.00
C5       -0.02065   0.68143    0.27147   1.00
C5       0.02065    0.67989    0.26570   1.00
H1       -0.09886   0.80883    0.22781   1.00
H1       0.09886    0.81204    0.23979   1.00
H1       -0.10053   0.69226    0.26907   1.00
H1       0.10053    0.69046    0.26237   1.00
C6       -0.04234   0.64724    0.29024   1.00
C6       0.04234    0.64089    0.26655   1.00
H2       -0.02358   0.63251    0.31214   1.00
H2       -0.06737   0.65709    0.30804   1.00
C6       -0.05724   0.61850    0.25921   1.00
H2       0.02358    0.61718    0.25496   1.00
H2       0.06737    0.64052    0.24621   1.00
C6       0.05724    0.63152    0.30780   1.00
H2       -0.03274   0.60716    0.24119   1.00
C6       -0.07832   0.58429    0.27842   1.00
H2       -0.07760   0.63369    0.23894   1.00
C6       0.07832    0.59230    0.30828   1.00
H2       0.07760    0.65482    0.31776   1.00
H2       0.03274    0.63072    0.32907   1.00
H2       -0.05822   0.56822    0.29814   1.00
H2       -0.10380   0.59477    0.29552   1.00
H2       -0.08898   0.56378    0.25569   1.00
H2       0.05822    0.56851    0.29924   1.00
H2       0.10380    0.59282    0.28823   1.00
H2       0.08898    0.58590    0.33821   1.00
C4       0.52067    0.74980    0.25075   1.00
C4       0.47933    0.75020    0.24925   1.00
C3       0.54244    0.78281    0.26340   1.00
C3       0.45756    0.78511    0.25481   1.00
C4       0.54150    0.71586    0.23913   1.00
C4       0.45850    0.71500    0.24233   1.00
C2       0.60352    0.75061    0.25015   1.00
C2       0.39648    0.75060    0.25018   1.00
C3       0.58310    0.78314    0.26268   1.00
C3       0.41690    0.78504    0.25559   1.00
C3       0.58306    0.71713    0.23901   1.00
C3       0.41694    0.71604    0.24308   1.00
H1       0.52888    0.80867    0.27497   1.00
H1       0.47112    0.81329    0.25772   1.00
C5       0.52065    0.68143    0.22853   1.00
C5       0.47935    0.67989    0.23430   1.00
H1       0.59886    0.80883    0.27219   1.00
H1       0.40114    0.81204    0.26021   1.00
H1       0.60053    0.69226    0.23093   1.00
H1       0.39947    0.69046    0.23763   1.00
C6       0.54234    0.64724    0.20976   1.00
C6       0.45766    0.64089    0.23345   1.00
H2       0.52358    0.63251    0.18786   1.00
H2       0.56737    0.65709    0.19196   1.00
C6       0.55724    0.61850    0.24079   1.00
H2       0.47642    0.61718    0.24504   1.00
H2       0.43263    0.64052    0.25379   1.00
C6       0.44276    0.63152    0.19220   1.00
H2       0.53274    0.60716    0.25881   1.00
C6       0.57832    0.58429    0.22158   1.00
H2       0.57760    0.63369    0.26106   1.00
C6       0.42168    0.59230    0.19172   1.00
H2       0.42240    0.65482    0.18224   1.00
H2       0.46726    0.63072    0.17093   1.00
H2       0.55822    0.56822    0.20186   1.00
H2       0.60380    0.59477    0.20448   1.00
H2       0.58898    0.56378    0.24431   1.00
H2       0.44178    0.56851    0.20076   1.00
H2       0.39620    0.59282    0.21177   1.00
H2       0.41102    0.58590    0.16179   1.00
C4       0.24925    0.47933    0.24980   1.00
C4       0.25075    0.52067    0.25020   1.00
C3       0.23660    0.45756    0.28281   1.00
C3       0.24519    0.54244    0.28511   1.00
C4       0.26087    0.45850    0.21586   1.00
C4       0.25767    0.54150    0.21500   1.00
C2       0.24985    0.39648    0.25061   1.00
C2       0.24982    0.60352    0.25060   1.00
C3       0.23732    0.41690    0.28314   1.00
C3       0.24441    0.58310    0.28504   1.00
C3       0.26099    0.41694    0.21713   1.00
C3       0.25692    0.58306    0.21604   1.00
H1       0.22503    0.47112    0.30867   1.00
H1       0.24228    0.52888    0.31329   1.00
C5       0.27147    0.47935    0.18143   1.00
C5       0.26570    0.52065    0.17989   1.00
H1       0.22781    0.40114    0.30883   1.00
H1       0.23979    0.59886    0.31204   1.00
H1       0.26907    0.39947    0.19226   1.00
H1       0.26237    0.60053    0.19046   1.00
C6       0.29024    0.45766    0.14724   1.00
C6       0.26655    0.54234    0.14089   1.00
H2       0.31214    0.47642    0.13251   1.00
H2       0.30804    0.43263    0.15709   1.00
C6       0.25921    0.44276    0.11850   1.00
H2       0.25496    0.52358    0.11718   1.00
H2       0.24621    0.56737    0.14052   1.00
C6       0.30780    0.55724    0.13152   1.00
H2       0.24119    0.46726    0.10716   1.00
C6       0.27842    0.42168    0.08429   1.00
H2       0.23894    0.42240    0.13369   1.00
C6       0.30828    0.57832    0.09230   1.00
H2       0.31776    0.57760    0.15482   1.00
H2       0.32907    0.53274    0.13072   1.00
H2       0.29814    0.44178    0.06822   1.00
H2       0.29552    0.39620    0.09477   1.00
H2       0.25569    0.41102    0.06378   1.00
H2       0.29924    0.55822    0.06851   1.00
H2       0.28823    0.60380    0.09282   1.00
H2       0.33821    0.58898    0.08590   1.00
C4       0.24980    0.74925    -0.02067   1.00
C4       0.25020    0.75075    0.02067   1.00
C3       0.28281    0.73660    -0.04244   1.00
C3       0.28511    0.74519    0.04244   1.00
C4       0.21586    0.76087    -0.04150   1.00
C4       0.21500    0.75767    0.04150   1.00
C2       0.25061    0.74985    -0.10352   1.00
C2       0.25060    0.74982    0.10352   1.00
C3       0.28314    0.73732    -0.08310   1.00
C3       0.28504    0.74441    0.08310   1.00
C3       0.21713    0.76099    -0.08306   1.00
C3       0.21604    0.75692    0.08306   1.00
H1       0.30867    0.72503    -0.02888   1.00
H1       0.31329    0.74228    0.02888   1.00
C5       0.18143    0.77147    -0.02065   1.00
C5       0.17989    0.76570    0.02065   1.00
H1       0.30883    0.72781    -0.09886   1.00
H1       0.31204    0.73979    0.09886   1.00
H1       0.19226    0.76907    -0.10053   1.00
H1       0.19046    0.76237    0.10053   1.00
C6       0.14724    0.79024    -0.04234   1.00
C6       0.14089    0.76655    0.04234   1.00
H2       0.13251    0.81214    -0.02358   1.00
H2       0.15709    0.80804    -0.06737   1.00
C6       0.11850    0.75921    -0.05724   1.00
H2       0.11718    0.75496    0.02358   1.00
H2       0.14052    0.74621    0.06737   1.00
C6       0.13152    0.80780    0.05724   1.00
H2       0.10716    0.74119    -0.03274   1.00
C6       0.08429    0.77842    -0.07832   1.00
H2       0.13369    0.73894    -0.07760   1.00
C6       0.09230    0.80828    0.07832   1.00
H2       0.15482    0.81776    0.07760   1.00
H2       0.13072    0.82907    0.03274   1.00
H2       0.06822    0.79814    -0.05822   1.00
H2       0.09477    0.79552    -0.10380   1.00
H2       0.06378    0.75569    -0.08898   1.00
H2       0.06851    0.79924    0.05822   1.00
H2       0.09282    0.78823    0.10380   1.00
H2       0.08590    0.83821    0.08898   1.00
C4       0.74980    0.25075    0.52067   1.00
C4       0.75020    0.24925    0.47933   1.00
C3       0.78281    0.26340    0.54244   1.00
C3       0.78511    0.25481    0.45756   1.00
C4       0.71586    0.23913    0.54150   1.00
C4       0.71500    0.24233    0.45850   1.00
C2       0.75061    0.25015    0.60352   1.00
C2       0.75060    0.25018    0.39648   1.00
C3       0.78314    0.26268    0.58310   1.00
C3       0.78504    0.25559    0.41690   1.00
C3       0.71713    0.23901    0.58306   1.00
C3       0.71604    0.24308    0.41694   1.00
H1       0.80867    0.27497    0.52888   1.00
H1       0.81329    0.25772    0.47112   1.00
C5       0.68143    0.22853    0.52065   1.00
C5       0.67989    0.23430    0.47935   1.00
H1       0.80883    0.27219    0.59886   1.00
H1       0.81204    0.26021    0.40114   1.00
H1       0.69226    0.23093    0.60053   1.00
H1       0.69046    0.23763    0.39947   1.00
C6       0.64724    0.20976    0.54234   1.00
C6       0.64089    0.23345    0.45766   1.00
H2       0.63251    0.18786    0.52358   1.00
H2       0.65709    0.19196    0.56737   1.00
C6       0.61850    0.24079    0.55724   1.00
H2       0.61718    0.24504    0.47642   1.00
H2       0.64052    0.25379    0.43263   1.00
C6       0.63152    0.19220    0.44276   1.00
H2       0.60716    0.25881    0.53274   1.00
C6       0.58429    0.22158    0.57832   1.00
H2       0.63369    0.26106    0.57760   1.00
C6       0.59230    0.19172    0.42168   1.00
H2       0.65482    0.18224    0.42240   1.00
H2       0.63072    0.17093    0.46726   1.00
H2       0.56822    0.20186    0.55822   1.00
H2       0.59477    0.20448    0.60380   1.00
H2       0.56378    0.24431    0.58898   1.00
H2       0.56851    0.20076    0.44178   1.00
H2       0.59282    0.21177    0.39620   1.00
H2       0.58590    0.16179    0.41102   1.00
C4       0.75075    0.52067    0.24980   1.00
C4       0.74925    0.47933    0.25020   1.00
C3       0.76340    0.54244    0.28281   1.00
C3       0.75481    0.45756    0.28511   1.00
C4       0.73913    0.54150    0.21586   1.00
C4       0.74233    0.45850    0.21500   1.00
C2       0.75015    0.60352    0.25061   1.00
C2       0.75018    0.39648    0.25060   1.00
C3       0.76268    0.58310    0.28314   1.00
C3       0.75559    0.41690    0.28504   1.00
C3       0.73901    0.58306    0.21713   1.00
C3       0.74308    0.41694    0.21604   1.00
H1       0.77497    0.52888    0.30867   1.00
H1       0.75772    0.47112    0.31329   1.00
C5       0.72853    0.52065    0.18143   1.00
C5       0.73430    0.47935    0.17989   1.00
H1       0.77219    0.59886    0.30883   1.00
H1       0.76021    0.40114    0.31204   1.00
H1       0.73093    0.60053    0.19226   1.00
H1       0.73763    0.39947    0.19046   1.00
C6       0.70976    0.54234    0.14724   1.00
C6       0.73345    0.45766    0.14089   1.00
H2       0.68786    0.52358    0.13251   1.00
H2       0.69196    0.56737    0.15709   1.00
C6       0.74079    0.55724    0.11850   1.00
H2       0.74504    0.47642    0.11718   1.00
H2       0.75379    0.43263    0.14052   1.00
C6       0.69220    0.44276    0.13152   1.00
H2       0.75881    0.53274    0.10716   1.00
C6       0.72158    0.57832    0.08429   1.00
H2       0.76106    0.57760    0.13369   1.00
C6       0.69172    0.42168    0.09230   1.00
H2       0.68224    0.42240    0.15482   1.00
H2       0.67093    0.46726    0.13072   1.00
H2       0.70186    0.55822    0.06822   1.00
H2       0.70448    0.60380    0.09477   1.00
H2       0.74431    0.58898    0.06378   1.00
H2       0.70076    0.44178    0.06851   1.00
H2       0.71177    0.39620    0.09282   1.00
H2       0.66179    0.41102    0.08590   1.00
C4       0.47933    0.24980    0.24925   1.00
C4       0.52067    0.25020    0.25075   1.00
C3       0.45756    0.28281    0.23660   1.00
C3       0.54244    0.28511    0.24519   1.00
C4       0.45850    0.21586    0.26087   1.00
C4       0.54150    0.21500    0.25767   1.00
C2       0.39648    0.25061    0.24985   1.00
C2       0.60352    0.25060    0.24982   1.00
C3       0.41690    0.28314    0.23732   1.00
C3       0.58310    0.28504    0.24441   1.00
C3       0.41694    0.21713    0.26099   1.00
C3       0.58306    0.21604    0.25692   1.00
H1       0.47112    0.30867    0.22503   1.00
H1       0.52888    0.31329    0.24228   1.00
C5       0.47935    0.18143    0.27147   1.00
C5       0.52065    0.17989    0.26570   1.00
H1       0.40114    0.30883    0.22781   1.00
H1       0.59886    0.31204    0.23979   1.00
H1       0.39947    0.19226    0.26907   1.00
H1       0.60053    0.19046    0.26237   1.00
C6       0.45766    0.14724    0.29024   1.00
C6       0.54234    0.14089    0.26655   1.00
H2       0.47642    0.13251    0.31214   1.00
H2       0.43263    0.15709    0.30804   1.00
C6       0.44276    0.11850    0.25921   1.00
H2       0.52358    0.11718    0.25496   1.00
H2       0.56737    0.14052    0.24621   1.00
C6       0.55724    0.13152    0.30780   1.00
H2       0.46726    0.10716    0.24119   1.00
C6       0.42168    0.08429    0.27842   1.00
H2       0.42240    0.13369    0.23894   1.00
C6       0.57832    0.09230    0.30828   1.00
H2       0.57760    0.15482    0.31776   1.00
H2       0.53274    0.13072    0.32907   1.00
H2       0.44178    0.06822    0.29814   1.00
H2       0.39620    0.09477    0.29552   1.00
H2       0.41102    0.06378    0.25569   1.00
H2       0.55822    0.06851    0.29924   1.00
H2       0.60380    0.09282    0.28823   1.00
H2       0.58898    0.08590    0.33821   1.00
C4       1.02067    0.24980    0.25075   1.00
C4       0.97933    0.25020    0.24925   1.00
C3       1.04244    0.28281    0.26340   1.00
C3       0.95756    0.28511    0.25481   1.00
C4       1.04150    0.21586    0.23913   1.00
C4       0.95850    0.21500    0.24233   1.00
C2       1.10352    0.25061    0.25015   1.00
C2       0.89648    0.25060    0.25018   1.00
C3       1.08310    0.28314    0.26268   1.00
C3       0.91690    0.28504    0.25559   1.00
C3       1.08306    0.21713    0.23901   1.00
C3       0.91694    0.21604    0.24308   1.00
H1       1.02888    0.30867    0.27497   1.00
H1       0.97112    0.31329    0.25772   1.00
C5       1.02065    0.18143    0.22853   1.00
C5       0.97935    0.17989    0.23430   1.00
H1       1.09886    0.30883    0.27219   1.00
H1       0.90114    0.31204    0.26021   1.00
H1       1.10053    0.19226    0.23093   1.00
H1       0.89947    0.19046    0.23763   1.00
C6       1.04234    0.14724    0.20976   1.00
C6       0.95766    0.14089    0.23345   1.00
H2       1.02358    0.13251    0.18786   1.00
H2       1.06737    0.15709    0.19196   1.00
C6       1.05724    0.11850    0.24079   1.00
H2       0.97642    0.11718    0.24504   1.00
H2       0.93263    0.14052    0.25379   1.00
C6       0.94276    0.13152    0.19220   1.00
H2       1.03274    0.10716    0.25881   1.00
C6       1.07832    0.08429    0.22158   1.00
H2       1.07760    0.13369    0.26106   1.00
C6       0.92168    0.09230    0.19172   1.00
H2       0.92240    0.15482    0.18224   1.00
H2       0.96726    0.13072    0.17093   1.00
H2       1.05822    0.06822    0.20186   1.00
H2       1.10380    0.09477    0.20448   1.00
H2       1.08898    0.06378    0.24431   1.00
H2       0.94178    0.06851    0.20076   1.00
H2       0.89620    0.09282    0.21177   1.00
H2       0.91102    0.08590    0.16179   1.00
C4       0.74925    -0.02067   0.24980   1.00
C4       0.75075    0.02067    0.25020   1.00
C3       0.73660    -0.04244   0.28281   1.00
C3       0.74519    0.04244    0.28511   1.00
C4       0.76087    -0.04150   0.21586   1.00
C4       0.75767    0.04150    0.21500   1.00
C2       0.74985    -0.10352   0.25061   1.00
C2       0.74982    0.10352    0.25060   1.00
C3       0.73732    -0.08310   0.28314   1.00
C3       0.74441    0.08310    0.28504   1.00
C3       0.76099    -0.08306   0.21713   1.00
C3       0.75692    0.08306    0.21604   1.00
H1       0.72503    -0.02888   0.30867   1.00
H1       0.74228    0.02888    0.31329   1.00
C5       0.77147    -0.02065   0.18143   1.00
C5       0.76570    0.02065    0.17989   1.00
H1       0.72781    -0.09886   0.30883   1.00
H1       0.73979    0.09886    0.31204   1.00
H1       0.76907    -0.10053   0.19226   1.00
H1       0.76237    0.10053    0.19046   1.00
C6       0.79024    -0.04234   0.14724   1.00
C6       0.76655    0.04234    0.14089   1.00
H2       0.81214    -0.02358   0.13251   1.00
H2       0.80804    -0.06737   0.15709   1.00
C6       0.75921    -0.05724   0.11850   1.00
H2       0.75496    0.02358    0.11718   1.00
H2       0.74621    0.06737    0.14052   1.00
C6       0.80780    0.05724    0.13152   1.00
H2       0.74119    -0.03274   0.10716   1.00
C6       0.77842    -0.07832   0.08429   1.00
H2       0.73894    -0.07760   0.13369   1.00
C6       0.80828    0.07832    0.09230   1.00
H2       0.81776    0.07760    0.15482   1.00
H2       0.82907    0.03274    0.13072   1.00
H2       0.79814    -0.05822   0.06822   1.00
H2       0.79552    -0.10380   0.09477   1.00
H2       0.75569    -0.08898   0.06378   1.00
H2       0.79924    0.05822    0.06851   1.00
H2       0.78823    0.10380    0.09282   1.00
H2       0.83821    0.08898    0.08590   1.00
C4       0.74980    0.24925    -0.02067   1.00
C4       0.75020    0.25075    0.02067   1.00
C3       0.78281    0.23660    -0.04244   1.00
C3       0.78511    0.24519    0.04244   1.00
C4       0.71586    0.26087    -0.04150   1.00
C4       0.71500    0.25767    0.04150   1.00
C2       0.75061    0.24985    -0.10352   1.00
C2       0.75060    0.24982    0.10352   1.00
C3       0.78314    0.23732    -0.08310   1.00
C3       0.78504    0.24441    0.08310   1.00
C3       0.71713    0.26099    -0.08306   1.00
C3       0.71604    0.25692    0.08306   1.00
H1       0.80867    0.22503    -0.02888   1.00
H1       0.81329    0.24228    0.02888   1.00
C5       0.68143    0.27147    -0.02065   1.00
C5       0.67989    0.26570    0.02065   1.00
H1       0.80883    0.22781    -0.09886   1.00
H1       0.81204    0.23979    0.09886   1.00
H1       0.69226    0.26907    -0.10053   1.00
H1       0.69046    0.26237    0.10053   1.00
C6       0.64724    0.29024    -0.04234   1.00
C6       0.64089    0.26655    0.04234   1.00
H2       0.63251    0.31214    -0.02358   1.00
H2       0.65709    0.30804    -0.06737   1.00
C6       0.61850    0.25921    -0.05724   1.00
H2       0.61718    0.25496    0.02358   1.00
H2       0.64052    0.24621    0.06737   1.00
C6       0.63152    0.30780    0.05724   1.00
H2       0.60716    0.24119    -0.03274   1.00
C6       0.58429    0.27842    -0.07832   1.00
H2       0.63369    0.23894    -0.07760   1.00
C6       0.59230    0.30828    0.07832   1.00
H2       0.65482    0.31776    0.07760   1.00
H2       0.63072    0.32907    0.03274   1.00
H2       0.56822    0.29814    -0.05822   1.00
H2       0.59477    0.29552    -0.10380   1.00
H2       0.56378    0.25569    -0.08898   1.00
H2       0.56851    0.29924    0.05822   1.00
H2       0.59282    0.28823    0.10380   1.00
H2       0.58590    0.33821    0.08898   1.00
C4       0.99980    1.00075    1.27067   1.00
C4       1.00020    0.99925    1.22933   1.00
C3       1.03281    1.01340    1.29244   1.00
C3       1.03511    1.00481    1.20756   1.00
C4       0.96586    0.98913    1.29150   1.00
C4       0.96500    0.99233    1.20850   1.00
C2       1.00061    1.00015    1.35352   1.00
C2       1.00060    1.00018    1.14648   1.00
C3       1.03314    1.01268    1.33310   1.00
C3       1.03504    1.00559    1.16690   1.00
C3       0.96713    0.98901    1.33306   1.00
C3       0.96604    0.99308    1.16694   1.00
H1       1.05867    1.02497    1.27888   1.00
H1       1.06329    1.00772    1.22112   1.00
C5       0.93143    0.97853    1.27065   1.00
C5       0.92989    0.98430    1.22935   1.00
H1       1.05883    1.02219    1.34886   1.00
H1       1.06204    1.01021    1.15114   1.00
H1       0.94226    0.98093    1.35053   1.00
H1       0.94046    0.98763    1.14947   1.00
C6       0.89724    0.95976    1.29234   1.00
C6       0.89089    0.98345    1.20766   1.00
H2       0.88251    0.93786    1.27358   1.00
H2       0.90709    0.94196    1.31737   1.00
C6       0.86850    0.99079    1.30724   1.00
H2       0.86718    0.99504    1.22642   1.00
H2       0.89052    1.00379    1.18263   1.00
C6       0.88152    0.94220    1.19276   1.00
H2       0.85716    1.00881    1.28274   1.00
C6       0.83429    0.97158    1.32832   1.00
H2       0.88369    1.01106    1.32760   1.00
C6       0.84230    0.94172    1.17168   1.00
H2       0.90482    0.93224    1.17240   1.00
H2       0.88072    0.92093    1.21726   1.00
H2       0.81822    0.95186    1.30822   1.00
H2       0.84477    0.95448    1.35380   1.00
H2       0.81378    0.99431    1.33898   1.00
H2       0.81851    0.95076    1.19178   1.00
H2       0.84282    0.96177    1.14620   1.00
H2       0.83590    0.91179    1.16102   1.00
C4       1.00075    1.27067    0.99980   1.00
C4       0.99925    1.22933    1.00020   1.00
C3       1.01340    1.29244    1.03281   1.00
C3       1.00481    1.20756    1.03511   1.00
C4       0.98913    1.29150    0.96586   1.00
C4       0.99233    1.20850    0.96500   1.00
C2       1.00015    1.35352    1.00061   1.00
C2       1.00018    1.14648    1.00060   1.00
C3       1.01268    1.33310    1.03314   1.00
C3       1.00559    1.16690    1.03504   1.00
C3       0.98901    1.33306    0.96713   1.00
C3       0.99308    1.16694    0.96604   1.00
H1       1.02497    1.27888    1.05867   1.00
H1       1.00772    1.22112    1.06329   1.00
C5       0.97853    1.27065    0.93143   1.00
C5       0.98430    1.22935    0.92989   1.00
H1       1.02219    1.34886    1.05883   1.00
H1       1.01021    1.15114    1.06204   1.00
H1       0.98093    1.35053    0.94226   1.00
H1       0.98763    1.14947    0.94046   1.00
C6       0.95976    1.29234    0.89724   1.00
C6       0.98345    1.20766    0.89089   1.00
H2       0.93786    1.27358    0.88251   1.00
H2       0.94196    1.31737    0.90709   1.00
C6       0.99079    1.30724    0.86850   1.00
H2       0.99504    1.22642    0.86718   1.00
H2       1.00379    1.18263    0.89052   1.00
C6       0.94220    1.19276    0.88152   1.00
H2       1.00881    1.28274    0.85716   1.00
C6       0.97158    1.32832    0.83429   1.00
H2       1.01106    1.32760    0.88369   1.00
C6       0.94172    1.17168    0.84230   1.00
H2       0.93224    1.17240    0.90482   1.00
H2       0.92093    1.21726    0.88072   1.00
H2       0.95186    1.30822    0.81822   1.00
H2       0.95448    1.35380    0.84477   1.00
H2       0.99431    1.33898    0.81378   1.00
H2       0.95076    1.19178    0.81851   1.00
H2       0.96177    1.14620    0.84282   1.00
H2       0.91179    1.16102    0.83590   1.00
C4       0.72933    0.99980    0.99925   1.00
C4       0.77067    1.00020    1.00075   1.00
C3       0.70756    1.03281    0.98660   1.00
C3       0.79244    1.03511    0.99519   1.00
C4       0.70850    0.96586    1.01087   1.00
C4       0.79150    0.96500    1.00767   1.00
C2       0.64648    1.00061    0.99985   1.00
C2       0.85352    1.00060    0.99982   1.00
C3       0.66690    1.03314    0.98732   1.00
C3       0.83310    1.03504    0.99441   1.00
C3       0.66694    0.96713    1.01099   1.00
C3       0.83306    0.96604    1.00692   1.00
H1       0.72112    1.05867    0.97503   1.00
H1       0.77888    1.06329    0.99228   1.00
C5       0.72935    0.93143    1.02147   1.00
C5       0.77065    0.92989    1.01570   1.00
H1       0.65114    1.05883    0.97781   1.00
H1       0.84886    1.06204    0.98979   1.00
H1       0.64947    0.94226    1.01907   1.00
H1       0.85053    0.94046    1.01237   1.00
C6       0.70766    0.89724    1.04024   1.00
C6       0.79234    0.89089    1.01655   1.00
H2       0.72642    0.88251    1.06214   1.00
H2       0.68263    0.90709    1.05804   1.00
C6       0.69276    0.86850    1.00921   1.00
H2       0.77358    0.86718    1.00496   1.00
H2       0.81737    0.89052    0.99621   1.00
C6       0.80724    0.88152    1.05780   1.00
H2       0.71726    0.85716    0.99119   1.00
C6       0.67168    0.83429    1.02842   1.00
H2       0.67240    0.88369    0.98894   1.00
C6       0.82832    0.84230    1.05828   1.00
H2       0.82760    0.90482    1.06776   1.00
H2       0.78274    0.88072    1.07907   1.00
H2       0.69178    0.81822    1.04814   1.00
H2       0.64620    0.84477    1.04552   1.00
H2       0.66102    0.81378    1.00569   1.00
H2       0.80822    0.81851    1.04924   1.00
H2       0.85380    0.84282    1.03823   1.00
H2       0.83898    0.83590    1.08821   1.00
C4       1.27067    0.99980    1.00075   1.00
C4       1.22933    1.00020    0.99925   1.00
C3       1.29244    1.03281    1.01340   1.00
C3       1.20756    1.03511    1.00481   1.00
C4       1.29150    0.96586    0.98913   1.00
C4       1.20850    0.96500    0.99233   1.00
C2       1.35352    1.00061    1.00015   1.00
C2       1.14648    1.00060    1.00018   1.00
C3       1.33310    1.03314    1.01268   1.00
C3       1.16690    1.03504    1.00559   1.00
C3       1.33306    0.96713    0.98901   1.00
C3       1.16694    0.96604    0.99308   1.00
H1       1.27888    1.05867    1.02497   1.00
H1       1.22112    1.06329    1.00772   1.00
C5       1.27065    0.93143    0.97853   1.00
C5       1.22935    0.92989    0.98430   1.00
H1       1.34886    1.05883    1.02219   1.00
H1       1.15114    1.06204    1.01021   1.00
H1       1.35053    0.94226    0.98093   1.00
H1       1.14947    0.94046    0.98763   1.00
C6       1.29234    0.89724    0.95976   1.00
C6       1.20766    0.89089    0.98345   1.00
H2       1.27358    0.88251    0.93786   1.00
H2       1.31737    0.90709    0.94196   1.00
C6       1.30724    0.86850    0.99079   1.00
H2       1.22642    0.86718    0.99504   1.00
H2       1.18263    0.89052    1.00379   1.00
C6       1.19276    0.88152    0.94220   1.00
H2       1.28274    0.85716    1.00881   1.00
C6       1.32832    0.83429    0.97158   1.00
H2       1.32760    0.88369    1.01106   1.00
C6       1.17168    0.84230    0.94172   1.00
H2       1.17240    0.90482    0.93224   1.00
H2       1.21726    0.88072    0.92093   1.00
H2       1.30822    0.81822    0.95186   1.00
H2       1.35380    0.84477    0.95448   1.00
H2       1.33898    0.81378    0.99431   1.00
H2       1.19178    0.81851    0.95076   1.00
H2       1.14620    0.84282    0.96177   1.00
H2       1.16102    0.83590    0.91179   1.00
C4       0.99925    0.72933    0.99980   1.00
C4       1.00075    0.77067    1.00020   1.00
C3       0.98660    0.70756    1.03281   1.00
C3       0.99519    0.79244    1.03511   1.00
C4       1.01087    0.70850    0.96586   1.00
C4       1.00767    0.79150    0.96500   1.00
C2       0.99985    0.64648    1.00061   1.00
C2       0.99982    0.85352    1.00060   1.00
C3       0.98732    0.66690    1.03314   1.00
C3       0.99441    0.83310    1.03504   1.00
C3       1.01099    0.66694    0.96713   1.00
C3       1.00692    0.83306    0.96604   1.00
H1       0.97503    0.72112    1.05867   1.00
H1       0.99228    0.77888    1.06329   1.00
C5       1.02147    0.72935    0.93143   1.00
C5       1.01570    0.77065    0.92989   1.00
H1       0.97781    0.65114    1.05883   1.00
H1       0.98979    0.84886    1.06204   1.00
H1       1.01907    0.64947    0.94226   1.00
H1       1.01237    0.85053    0.94046   1.00
C6       1.04024    0.70766    0.89724   1.00
C6       1.01655    0.79234    0.89089   1.00
H2       1.06214    0.72642    0.88251   1.00
H2       1.05804    0.68263    0.90709   1.00
C6       1.00921    0.69276    0.86850   1.00
H2       1.00496    0.77358    0.86718   1.00
H2       0.99621    0.81737    0.89052   1.00
C6       1.05780    0.80724    0.88152   1.00
H2       0.99119    0.71726    0.85716   1.00
C6       1.02842    0.67168    0.83429   1.00
H2       0.98894    0.67240    0.88369   1.00
C6       1.05828    0.82832    0.84230   1.00
H2       1.06776    0.82760    0.90482   1.00
H2       1.07907    0.78274    0.88072   1.00
H2       1.04814    0.69178    0.81822   1.00
H2       1.04552    0.64620    0.84477   1.00
H2       1.00569    0.66102    0.81378   1.00
H2       1.04924    0.80822    0.81851   1.00
H2       1.03823    0.85380    0.84282   1.00
H2       1.08821    0.83898    0.83590   1.00
C4       0.99980    0.99925    0.72933   1.00
C4       1.00020    1.00075    0.77067   1.00
C3       1.03281    0.98660    0.70756   1.00
C3       1.03511    0.99519    0.79244   1.00
C4       0.96586    1.01087    0.70850   1.00
C4       0.96500    1.00767    0.79150   1.00
C2       1.00061    0.99985    0.64648   1.00
C2       1.00060    0.99982    0.85352   1.00
C3       1.03314    0.98732    0.66690   1.00
C3       1.03504    0.99441    0.83310   1.00
C3       0.96713    1.01099    0.66694   1.00
C3       0.96604    1.00692    0.83306   1.00
H1       1.05867    0.97503    0.72112   1.00
H1       1.06329    0.99228    0.77888   1.00
C5       0.93143    1.02147    0.72935   1.00
C5       0.92989    1.01570    0.77065   1.00
H1       1.05883    0.97781    0.65114   1.00
H1       1.06204    0.98979    0.84886   1.00
H1       0.94226    1.01907    0.64947   1.00
H1       0.94046    1.01237    0.85053   1.00
C6       0.89724    1.04024    0.70766   1.00
C6       0.89089    1.01655    0.79234   1.00
H2       0.88251    1.06214    0.72642   1.00
H2       0.90709    1.05804    0.68263   1.00
C6       0.86850    1.00921    0.69276   1.00
H2       0.86718    1.00496    0.77358   1.00
H2       0.89052    0.99621    0.81737   1.00
C6       0.88152    1.05780    0.80724   1.00
H2       0.85716    0.99119    0.71726   1.00
C6       0.83429    1.02842    0.67168   1.00
H2       0.88369    0.98894    0.67240   1.00
C6       0.84230    1.05828    0.82832   1.00
H2       0.90482    1.06776    0.82760   1.00
H2       0.88072    1.07907    0.78274   1.00
H2       0.81822    1.04814    0.69178   1.00
H2       0.84477    1.04552    0.64620   1.00
H2       0.81378    1.00569    0.66102   1.00
H2       0.81851    1.04924    0.80822   1.00
H2       0.84282    1.03823    0.85380   1.00
H2       0.83590    1.08821    0.83898   1.00
C4       0.49980    0.50075    1.27067   1.00
C4       0.50020    0.49925    1.22933   1.00
C3       0.53281    0.51340    1.29244   1.00
C3       0.53511    0.50481    1.20756   1.00
C4       0.46586    0.48913    1.29150   1.00
C4       0.46500    0.49233    1.20850   1.00
C2       0.50061    0.50015    1.35352   1.00
C2       0.50060    0.50018    1.14648   1.00
C3       0.53314    0.51268    1.33310   1.00
C3       0.53504    0.50559    1.16690   1.00
C3       0.46713    0.48901    1.33306   1.00
C3       0.46604    0.49308    1.16694   1.00
H1       0.55867    0.52497    1.27888   1.00
H1       0.56329    0.50772    1.22112   1.00
C5       0.43143    0.47853    1.27065   1.00
C5       0.42989    0.48430    1.22935   1.00
H1       0.55883    0.52219    1.34886   1.00
H1       0.56204    0.51021    1.15114   1.00
H1       0.44226    0.48093    1.35053   1.00
H1       0.44046    0.48763    1.14947   1.00
C6       0.39724    0.45976    1.29234   1.00
C6       0.39089    0.48345    1.20766   1.00
H2       0.38251    0.43786    1.27358   1.00
H2       0.40709    0.44196    1.31737   1.00
C6       0.36850    0.49079    1.30724   1.00
H2       0.36718    0.49504    1.22642   1.00
H2       0.39052    0.50379    1.18263   1.00
C6       0.38152    0.44220    1.19276   1.00
H2       0.35716    0.50881    1.28274   1.00
C6       0.33429    0.47158    1.32832   1.00
H2       0.38369    0.51106    1.32760   1.00
C6       0.34230    0.44172    1.17168   1.00
H2       0.40482    0.43224    1.17240   1.00
H2       0.38072    0.42093    1.21726   1.00
H2       0.31822    0.45186    1.30822   1.00
H2       0.34477    0.45448    1.35380   1.00
H2       0.31378    0.49431    1.33898   1.00
H2       0.31851    0.45076    1.19178   1.00
H2       0.34282    0.46177    1.14620   1.00
H2       0.33590    0.41179    1.16102   1.00
C4       0.50075    0.77067    0.99980   1.00
C4       0.49925    0.72933    1.00020   1.00
C3       0.51340    0.79244    1.03281   1.00
C3       0.50481    0.70756    1.03511   1.00
C4       0.48913    0.79150    0.96586   1.00
C4       0.49233    0.70850    0.96500   1.00
C2       0.50015    0.85352    1.00061   1.00
C2       0.50018    0.64648    1.00060   1.00
C3       0.51268    0.83310    1.03314   1.00
C3       0.50559    0.66690    1.03504   1.00
C3       0.48901    0.83306    0.96713   1.00
C3       0.49308    0.66694    0.96604   1.00
H1       0.52497    0.77888    1.05867   1.00
H1       0.50772    0.72112    1.06329   1.00
C5       0.47853    0.77065    0.93143   1.00
C5       0.48430    0.72935    0.92989   1.00
H1       0.52219    0.84886    1.05883   1.00
H1       0.51021    0.65114    1.06204   1.00
H1       0.48093    0.85053    0.94226   1.00
H1       0.48763    0.64947    0.94046   1.00
C6       0.45976    0.79234    0.89724   1.00
C6       0.48345    0.70766    0.89089   1.00
H2       0.43786    0.77358    0.88251   1.00
H2       0.44196    0.81737    0.90709   1.00
C6       0.49079    0.80724    0.86850   1.00
H2       0.49504    0.72642    0.86718   1.00
H2       0.50379    0.68263    0.89052   1.00
C6       0.44220    0.69276    0.88152   1.00
H2       0.50881    0.78274    0.85716   1.00
C6       0.47158    0.82832    0.83429   1.00
H2       0.51106    0.82760    0.88369   1.00
C6       0.44172    0.67168    0.84230   1.00
H2       0.43224    0.67240    0.90482   1.00
H2       0.42093    0.71726    0.88072   1.00
H2       0.45186    0.80822    0.81822   1.00
H2       0.45448    0.85380    0.84477   1.00
H2       0.49431    0.83898    0.81378   1.00
H2       0.45076    0.69178    0.81851   1.00
H2       0.46177    0.64620    0.84282   1.00
H2       0.41179    0.66102    0.83590   1.00
C4       0.22933    0.49980    0.99925   1.00
C4       0.27067    0.50020    1.00075   1.00
C3       0.20756    0.53281    0.98660   1.00
C3       0.29244    0.53511    0.99519   1.00
C4       0.20850    0.46586    1.01087   1.00
C4       0.29150    0.46500    1.00767   1.00
C2       0.14648    0.50061    0.99985   1.00
C2       0.35352    0.50060    0.99982   1.00
C3       0.16690    0.53314    0.98732   1.00
C3       0.33310    0.53504    0.99441   1.00
C3       0.16694    0.46713    1.01099   1.00
C3       0.33306    0.46604    1.00692   1.00
H1       0.22112    0.55867    0.97503   1.00
H1       0.27888    0.56329    0.99228   1.00
C5       0.22935    0.43143    1.02147   1.00
C5       0.27065    0.42989    1.01570   1.00
H1       0.15114    0.55883    0.97781   1.00
H1       0.34886    0.56204    0.98979   1.00
H1       0.14947    0.44226    1.01907   1.00
H1       0.35053    0.44046    1.01237   1.00
C6       0.20766    0.39724    1.04024   1.00
C6       0.29234    0.39089    1.01655   1.00
H2       0.22642    0.38251    1.06214   1.00
H2       0.18263    0.40709    1.05804   1.00
C6       0.19276    0.36850    1.00921   1.00
H2       0.27358    0.36718    1.00496   1.00
H2       0.31737    0.39052    0.99621   1.00
C6       0.30724    0.38152    1.05780   1.00
H2       0.21726    0.35716    0.99119   1.00
C6       0.17168    0.33429    1.02842   1.00
H2       0.17240    0.38369    0.98894   1.00
C6       0.32832    0.34230    1.05828   1.00
H2       0.32760    0.40482    1.06776   1.00
H2       0.28274    0.38072    1.07907   1.00
H2       0.19178    0.31822    1.04814   1.00
H2       0.14620    0.34477    1.04552   1.00
H2       0.16102    0.31378    1.00569   1.00
H2       0.30822    0.31851    1.04924   1.00
H2       0.35380    0.34282    1.03823   1.00
H2       0.33898    0.33590    1.08821   1.00
C4       0.77067    0.49980    1.00075   1.00
C4       0.72933    0.50020    0.99925   1.00
C3       0.79244    0.53281    1.01340   1.00
C3       0.70756    0.53511    1.00481   1.00
C4       0.79150    0.46586    0.98913   1.00
C4       0.70850    0.46500    0.99233   1.00
C2       0.85352    0.50061    1.00015   1.00
C2       0.64648    0.50060    1.00018   1.00
C3       0.83310    0.53314    1.01268   1.00
C3       0.66690    0.53504    1.00559   1.00
C3       0.83306    0.46713    0.98901   1.00
C3       0.66694    0.46604    0.99308   1.00
H1       0.77888    0.55867    1.02497   1.00
H1       0.72112    0.56329    1.00772   1.00
C5       0.77065    0.43143    0.97853   1.00
C5       0.72935    0.42989    0.98430   1.00
H1       0.84886    0.55883    1.02219   1.00
H1       0.65114    0.56204    1.01021   1.00
H1       0.85053    0.44226    0.98093   1.00
H1       0.64947    0.44046    0.98763   1.00
C6       0.79234    0.39724    0.95976   1.00
C6       0.70766    0.39089    0.98345   1.00
H2       0.77358    0.38251    0.93786   1.00
H2       0.81737    0.40709    0.94196   1.00
C6       0.80724    0.36850    0.99079   1.00
H2       0.72642    0.36718    0.99504   1.00
H2       0.68263    0.39052    1.00379   1.00
C6       0.69276    0.38152    0.94220   1.00
H2       0.78274    0.35716    1.00881   1.00
C6       0.82832    0.33429    0.97158   1.00
H2       0.82760    0.38369    1.01106   1.00
C6       0.67168    0.34230    0.94172   1.00
H2       0.67240    0.40482    0.93224   1.00
H2       0.71726    0.38072    0.92093   1.00
H2       0.80822    0.31822    0.95186   1.00
H2       0.85380    0.34477    0.95448   1.00
H2       0.83898    0.31378    0.99431   1.00
H2       0.69178    0.31851    0.95076   1.00
H2       0.64620    0.34282    0.96177   1.00
H2       0.66102    0.33590    0.91179   1.00
C4       0.49925    0.22933    0.99980   1.00
C4       0.50075    0.27067    1.00020   1.00
C3       0.48660    0.20756    1.03281   1.00
C3       0.49519    0.29244    1.03511   1.00
C4       0.51087    0.20850    0.96586   1.00
C4       0.50767    0.29150    0.96500   1.00
C2       0.49985    0.14648    1.00061   1.00
C2       0.49982    0.35352    1.00060   1.00
C3       0.48732    0.16690    1.03314   1.00
C3       0.49441    0.33310    1.03504   1.00
C3       0.51099    0.16694    0.96713   1.00
C3       0.50692    0.33306    0.96604   1.00
H1       0.47503    0.22112    1.05867   1.00
H1       0.49228    0.27888    1.06329   1.00
C5       0.52147    0.22935    0.93143   1.00
C5       0.51570    0.27065    0.92989   1.00
H1       0.47781    0.15114    1.05883   1.00
H1       0.48979    0.34886    1.06204   1.00
H1       0.51907    0.14947    0.94226   1.00
H1       0.51237    0.35053    0.94046   1.00
C6       0.54024    0.20766    0.89724   1.00
C6       0.51655    0.29234    0.89089   1.00
H2       0.56214    0.22642    0.88251   1.00
H2       0.55804    0.18263    0.90709   1.00
C6       0.50921    0.19276    0.86850   1.00
H2       0.50496    0.27358    0.86718   1.00
H2       0.49621    0.31737    0.89052   1.00
C6       0.55780    0.30724    0.88152   1.00
H2       0.49119    0.21726    0.85716   1.00
C6       0.52842    0.17168    0.83429   1.00
H2       0.48894    0.17240    0.88369   1.00
C6       0.55828    0.32832    0.84230   1.00
H2       0.56776    0.32760    0.90482   1.00
H2       0.57907    0.28274    0.88072   1.00
H2       0.54814    0.19178    0.81822   1.00
H2       0.54552    0.14620    0.84477   1.00
H2       0.50569    0.16102    0.81378   1.00
H2       0.54924    0.30822    0.81851   1.00
H2       0.53823    0.35380    0.84282   1.00
H2       0.58821    0.33898    0.83590   1.00
C4       0.49980    0.49925    0.72933   1.00
C4       0.50020    0.50075    0.77067   1.00
C3       0.53281    0.48660    0.70756   1.00
C3       0.53511    0.49519    0.79244   1.00
C4       0.46586    0.51087    0.70850   1.00
C4       0.46500    0.50767    0.79150   1.00
C2       0.50061    0.49985    0.64648   1.00
C2       0.50060    0.49982    0.85352   1.00
C3       0.53314    0.48732    0.66690   1.00
C3       0.53504    0.49441    0.83310   1.00
C3       0.46713    0.51099    0.66694   1.00
C3       0.46604    0.50692    0.83306   1.00
H1       0.55867    0.47503    0.72112   1.00
H1       0.56329    0.49228    0.77888   1.00
C5       0.43143    0.52147    0.72935   1.00
C5       0.42989    0.51570    0.77065   1.00
H1       0.55883    0.47781    0.65114   1.00
H1       0.56204    0.48979    0.84886   1.00
H1       0.44226    0.51907    0.64947   1.00
H1       0.44046    0.51237    0.85053   1.00
C6       0.39724    0.54024    0.70766   1.00
C6       0.39089    0.51655    0.79234   1.00
H2       0.38251    0.56214    0.72642   1.00
H2       0.40709    0.55804    0.68263   1.00
C6       0.36850    0.50921    0.69276   1.00
H2       0.36718    0.50496    0.77358   1.00
H2       0.39052    0.49621    0.81737   1.00
C6       0.38152    0.55780    0.80724   1.00
H2       0.35716    0.49119    0.71726   1.00
C6       0.33429    0.52842    0.67168   1.00
H2       0.38369    0.48894    0.67240   1.00
C6       0.34230    0.55828    0.82832   1.00
H2       0.40482    0.56776    0.82760   1.00
H2       0.38072    0.57907    0.78274   1.00
H2       0.31822    0.54814    0.69178   1.00
H2       0.34477    0.54552    0.64620   1.00
H2       0.31378    0.50569    0.66102   1.00
H2       0.31851    0.54924    0.80822   1.00
H2       0.34282    0.53823    0.85380   1.00
H2       0.33590    0.58821    0.83898   1.00
C4       0.49980    1.00075    0.77067   1.00
C4       0.50020    0.99925    0.72933   1.00
C3       0.53281    1.01340    0.79244   1.00
C3       0.53511    1.00481    0.70756   1.00
C4       0.46586    0.98913    0.79150   1.00
C4       0.46500    0.99233    0.70850   1.00
C2       0.50061    1.00015    0.85352   1.00
C2       0.50060    1.00018    0.64648   1.00
C3       0.53314    1.01268    0.83310   1.00
C3       0.53504    1.00559    0.66690   1.00
C3       0.46713    0.98901    0.83306   1.00
C3       0.46604    0.99308    0.66694   1.00
H1       0.55867    1.02497    0.77888   1.00
H1       0.56329    1.00772    0.72112   1.00
C5       0.43143    0.97853    0.77065   1.00
C5       0.42989    0.98430    0.72935   1.00
H1       0.55883    1.02219    0.84886   1.00
H1       0.56204    1.01021    0.65114   1.00
H1       0.44226    0.98093    0.85053   1.00
H1       0.44046    0.98763    0.64947   1.00
C6       0.39724    0.95976    0.79234   1.00
C6       0.39089    0.98345    0.70766   1.00
H2       0.38251    0.93786    0.77358   1.00
H2       0.40709    0.94196    0.81737   1.00
C6       0.36850    0.99079    0.80724   1.00
H2       0.36718    0.99504    0.72642   1.00
H2       0.39052    1.00379    0.68263   1.00
C6       0.38152    0.94220    0.69276   1.00
H2       0.35716    1.00881    0.78274   1.00
C6       0.33429    0.97158    0.82832   1.00
H2       0.38369    1.01106    0.82760   1.00
C6       0.34230    0.94172    0.67168   1.00
H2       0.40482    0.93224    0.67240   1.00
H2       0.38072    0.92093    0.71726   1.00
H2       0.31822    0.95186    0.80822   1.00
H2       0.34477    0.95448    0.85380   1.00
H2       0.31378    0.99431    0.83898   1.00
H2       0.31851    0.95076    0.69178   1.00
H2       0.34282    0.96177    0.64620   1.00
H2       0.33590    0.91179    0.66102   1.00
C4       0.50075    1.27067    0.49980   1.00
C4       0.49925    1.22933    0.50020   1.00
C3       0.51340    1.29244    0.53281   1.00
C3       0.50481    1.20756    0.53511   1.00
C4       0.48913    1.29150    0.46586   1.00
C4       0.49233    1.20850    0.46500   1.00
C2       0.50015    1.35352    0.50061   1.00
C2       0.50018    1.14648    0.50060   1.00
C3       0.51268    1.33310    0.53314   1.00
C3       0.50559    1.16690    0.53504   1.00
C3       0.48901    1.33306    0.46713   1.00
C3       0.49308    1.16694    0.46604   1.00
H1       0.52497    1.27888    0.55867   1.00
H1       0.50772    1.22112    0.56329   1.00
C5       0.47853    1.27065    0.43143   1.00
C5       0.48430    1.22935    0.42989   1.00
H1       0.52219    1.34886    0.55883   1.00
H1       0.51021    1.15114    0.56204   1.00
H1       0.48093    1.35053    0.44226   1.00
H1       0.48763    1.14947    0.44046   1.00
C6       0.45976    1.29234    0.39724   1.00
C6       0.48345    1.20766    0.39089   1.00
H2       0.43786    1.27358    0.38251   1.00
H2       0.44196    1.31737    0.40709   1.00
C6       0.49079    1.30724    0.36850   1.00
H2       0.49504    1.22642    0.36718   1.00
H2       0.50379    1.18263    0.39052   1.00
C6       0.44220    1.19276    0.38152   1.00
H2       0.50881    1.28274    0.35716   1.00
C6       0.47158    1.32832    0.33429   1.00
H2       0.51106    1.32760    0.38369   1.00
C6       0.44172    1.17168    0.34230   1.00
H2       0.43224    1.17240    0.40482   1.00
H2       0.42093    1.21726    0.38072   1.00
H2       0.45186    1.30822    0.31822   1.00
H2       0.45448    1.35380    0.34477   1.00
H2       0.49431    1.33898    0.31378   1.00
H2       0.45076    1.19178    0.31851   1.00
H2       0.46177    1.14620    0.34282   1.00
H2       0.41179    1.16102    0.33590   1.00
C4       0.22933    0.99980    0.49925   1.00
C4       0.27067    1.00020    0.50075   1.00
C3       0.20756    1.03281    0.48660   1.00
C3       0.29244    1.03511    0.49519   1.00
C4       0.20850    0.96586    0.51087   1.00
C4       0.29150    0.96500    0.50767   1.00
C2       0.14648    1.00061    0.49985   1.00
C2       0.35352    1.00060    0.49982   1.00
C3       0.16690    1.03314    0.48732   1.00
C3       0.33310    1.03504    0.49441   1.00
C3       0.16694    0.96713    0.51099   1.00
C3       0.33306    0.96604    0.50692   1.00
H1       0.22112    1.05867    0.47503   1.00
H1       0.27888    1.06329    0.49228   1.00
C5       0.22935    0.93143    0.52147   1.00
C5       0.27065    0.92989    0.51570   1.00
H1       0.15114    1.05883    0.47781   1.00
H1       0.34886    1.06204    0.48979   1.00
H1       0.14947    0.94226    0.51907   1.00
H1       0.35053    0.94046    0.51237   1.00
C6       0.20766    0.89724    0.54024   1.00
C6       0.29234    0.89089    0.51655   1.00
H2       0.22642    0.88251    0.56214   1.00
H2       0.18263    0.90709    0.55804   1.00
C6       0.19276    0.86850    0.50921   1.00
H2       0.27358    0.86718    0.50496   1.00
H2       0.31737    0.89052    0.49621   1.00
C6       0.30724    0.88152    0.55780   1.00
H2       0.21726    0.85716    0.49119   1.00
C6       0.17168    0.83429    0.52842   1.00
H2       0.17240    0.88369    0.48894   1.00
C6       0.32832    0.84230    0.55828   1.00
H2       0.32760    0.90482    0.56776   1.00
H2       0.28274    0.88072    0.57907   1.00
H2       0.19178    0.81822    0.54814   1.00
H2       0.14620    0.84477    0.54552   1.00
H2       0.16102    0.81378    0.50569   1.00
H2       0.30822    0.81851    0.54924   1.00
H2       0.35380    0.84282    0.53823   1.00
H2       0.33898    0.83590    0.58821   1.00
C4       0.77067    0.99980    0.50075   1.00
C4       0.72933    1.00020    0.49925   1.00
C3       0.79244    1.03281    0.51340   1.00
C3       0.70756    1.03511    0.50481   1.00
C4       0.79150    0.96586    0.48913   1.00
C4       0.70850    0.96500    0.49233   1.00
C2       0.85352    1.00061    0.50015   1.00
C2       0.64648    1.00060    0.50018   1.00
C3       0.83310    1.03314    0.51268   1.00
C3       0.66690    1.03504    0.50559   1.00
C3       0.83306    0.96713    0.48901   1.00
C3       0.66694    0.96604    0.49308   1.00
H1       0.77888    1.05867    0.52497   1.00
H1       0.72112    1.06329    0.50772   1.00
C5       0.77065    0.93143    0.47853   1.00
C5       0.72935    0.92989    0.48430   1.00
H1       0.84886    1.05883    0.52219   1.00
H1       0.65114    1.06204    0.51021   1.00
H1       0.85053    0.94226    0.48093   1.00
H1       0.64947    0.94046    0.48763   1.00
C6       0.79234    0.89724    0.45976   1.00
C6       0.70766    0.89089    0.48345   1.00
H2       0.77358    0.88251    0.43786   1.00
H2       0.81737    0.90709    0.44196   1.00
C6       0.80724    0.86850    0.49079   1.00
H2       0.72642    0.86718    0.49504   1.00
H2       0.68263    0.89052    0.50379   1.00
C6       0.69276    0.88152    0.44220   1.00
H2       0.78274    0.85716    0.50881   1.00
C6       0.82832    0.83429    0.47158   1.00
H2       0.82760    0.88369    0.51106   1.00
C6       0.67168    0.84230    0.44172   1.00
H2       0.67240    0.90482    0.43224   1.00
H2       0.71726    0.88072    0.42093   1.00
H2       0.80822    0.81822    0.45186   1.00
H2       0.85380    0.84477    0.45448   1.00
H2       0.83898    0.81378    0.49431   1.00
H2       0.69178    0.81851    0.45076   1.00
H2       0.64620    0.84282    0.46177   1.00
H2       0.66102    0.83590    0.41179   1.00
C4       0.49925    0.72933    0.49980   1.00
C4       0.50075    0.77067    0.50020   1.00
C3       0.48660    0.70756    0.53281   1.00
C3       0.49519    0.79244    0.53511   1.00
C4       0.51087    0.70850    0.46586   1.00
C4       0.50767    0.79150    0.46500   1.00
C2       0.49985    0.64648    0.50061   1.00
C2       0.49982    0.85352    0.50060   1.00
C3       0.48732    0.66690    0.53314   1.00
C3       0.49441    0.83310    0.53504   1.00
C3       0.51099    0.66694    0.46713   1.00
C3       0.50692    0.83306    0.46604   1.00
H1       0.47503    0.72112    0.55867   1.00
H1       0.49228    0.77888    0.56329   1.00
C5       0.52147    0.72935    0.43143   1.00
C5       0.51570    0.77065    0.42989   1.00
H1       0.47781    0.65114    0.55883   1.00
H1       0.48979    0.84886    0.56204   1.00
H1       0.51907    0.64947    0.44226   1.00
H1       0.51237    0.85053    0.44046   1.00
C6       0.54024    0.70766    0.39724   1.00
C6       0.51655    0.79234    0.39089   1.00
H2       0.56214    0.72642    0.38251   1.00
H2       0.55804    0.68263    0.40709   1.00
C6       0.50921    0.69276    0.36850   1.00
H2       0.50496    0.77358    0.36718   1.00
H2       0.49621    0.81737    0.39052   1.00
C6       0.55780    0.80724    0.38152   1.00
H2       0.49119    0.71726    0.35716   1.00
C6       0.52842    0.67168    0.33429   1.00
H2       0.48894    0.67240    0.38369   1.00
C6       0.55828    0.82832    0.34230   1.00
H2       0.56776    0.82760    0.40482   1.00
H2       0.57907    0.78274    0.38072   1.00
H2       0.54814    0.69178    0.31822   1.00
H2       0.54552    0.64620    0.34477   1.00
H2       0.50569    0.66102    0.31378   1.00
H2       0.54924    0.80822    0.31851   1.00
H2       0.53823    0.85380    0.34282   1.00
H2       0.58821    0.83898    0.33590   1.00
C4       0.49980    0.99925    0.22933   1.00
C4       0.50020    1.00075    0.27067   1.00
C3       0.53281    0.98660    0.20756   1.00
C3       0.53511    0.99519    0.29244   1.00
C4       0.46586    1.01087    0.20850   1.00
C4       0.46500    1.00767    0.29150   1.00
C2       0.50061    0.99985    0.14648   1.00
C2       0.50060    0.99982    0.35352   1.00
C3       0.53314    0.98732    0.16690   1.00
C3       0.53504    0.99441    0.33310   1.00
C3       0.46713    1.01099    0.16694   1.00
C3       0.46604    1.00692    0.33306   1.00
H1       0.55867    0.97503    0.22112   1.00
H1       0.56329    0.99228    0.27888   1.00
C5       0.43143    1.02147    0.22935   1.00
C5       0.42989    1.01570    0.27065   1.00
H1       0.55883    0.97781    0.15114   1.00
H1       0.56204    0.98979    0.34886   1.00
H1       0.44226    1.01907    0.14947   1.00
H1       0.44046    1.01237    0.35053   1.00
C6       0.39724    1.04024    0.20766   1.00
C6       0.39089    1.01655    0.29234   1.00
H2       0.38251    1.06214    0.22642   1.00
H2       0.40709    1.05804    0.18263   1.00
C6       0.36850    1.00921    0.19276   1.00
H2       0.36718    1.00496    0.27358   1.00
H2       0.39052    0.99621    0.31737   1.00
C6       0.38152    1.05780    0.30724   1.00
H2       0.35716    0.99119    0.21726   1.00
C6       0.33429    1.02842    0.17168   1.00
H2       0.38369    0.98894    0.17240   1.00
C6       0.34230    1.05828    0.32832   1.00
H2       0.40482    1.06776    0.32760   1.00
H2       0.38072    1.07907    0.28274   1.00
H2       0.31822    1.04814    0.19178   1.00
H2       0.34477    1.04552    0.14620   1.00
H2       0.31378    1.00569    0.16102   1.00
H2       0.31851    1.04924    0.30822   1.00
H2       0.34282    1.03823    0.35380   1.00
H2       0.33590    1.08821    0.33898   1.00
C4       0.99980    0.50075    0.77067   1.00
C4       1.00020    0.49925    0.72933   1.00
C3       1.03281    0.51340    0.79244   1.00
C3       1.03511    0.50481    0.70756   1.00
C4       0.96586    0.48913    0.79150   1.00
C4       0.96500    0.49233    0.70850   1.00
C2       1.00061    0.50015    0.85352   1.00
C2       1.00060    0.50018    0.64648   1.00
C3       1.03314    0.51268    0.83310   1.00
C3       1.03504    0.50559    0.66690   1.00
C3       0.96713    0.48901    0.83306   1.00
C3       0.96604    0.49308    0.66694   1.00
H1       1.05867    0.52497    0.77888   1.00
H1       1.06329    0.50772    0.72112   1.00
C5       0.93143    0.47853    0.77065   1.00
C5       0.92989    0.48430    0.72935   1.00
H1       1.05883    0.52219    0.84886   1.00
H1       1.06204    0.51021    0.65114   1.00
H1       0.94226    0.48093    0.85053   1.00
H1       0.94046    0.48763    0.64947   1.00
C6       0.89724    0.45976    0.79234   1.00
C6       0.89089    0.48345    0.70766   1.00
H2       0.88251    0.43786    0.77358   1.00
H2       0.90709    0.44196    0.81737   1.00
C6       0.86850    0.49079    0.80724   1.00
H2       0.86718    0.49504    0.72642   1.00
H2       0.89052    0.50379    0.68263   1.00
C6       0.88152    0.44220    0.69276   1.00
H2       0.85716    0.50881    0.78274   1.00
C6       0.83429    0.47158    0.82832   1.00
H2       0.88369    0.51106    0.82760   1.00
C6       0.84230    0.44172    0.67168   1.00
H2       0.90482    0.43224    0.67240   1.00
H2       0.88072    0.42093    0.71726   1.00
H2       0.81822    0.45186    0.80822   1.00
H2       0.84477    0.45448    0.85380   1.00
H2       0.81378    0.49431    0.83898   1.00
H2       0.81851    0.45076    0.69178   1.00
H2       0.84282    0.46177    0.64620   1.00
H2       0.83590    0.41179    0.66102   1.00
C4       1.00075    0.77067    0.49980   1.00
C4       0.99925    0.72933    0.50020   1.00
C3       1.01340    0.79244    0.53281   1.00
C3       1.00481    0.70756    0.53511   1.00
C4       0.98913    0.79150    0.46586   1.00
C4       0.99233    0.70850    0.46500   1.00
C2       1.00015    0.85352    0.50061   1.00
C2       1.00018    0.64648    0.50060   1.00
C3       1.01268    0.83310    0.53314   1.00
C3       1.00559    0.66690    0.53504   1.00
C3       0.98901    0.83306    0.46713   1.00
C3       0.99308    0.66694    0.46604   1.00
H1       1.02497    0.77888    0.55867   1.00
H1       1.00772    0.72112    0.56329   1.00
C5       0.97853    0.77065    0.43143   1.00
C5       0.98430    0.72935    0.42989   1.00
H1       1.02219    0.84886    0.55883   1.00
H1       1.01021    0.65114    0.56204   1.00
H1       0.98093    0.85053    0.44226   1.00
H1       0.98763    0.64947    0.44046   1.00
C6       0.95976    0.79234    0.39724   1.00
C6       0.98345    0.70766    0.39089   1.00
H2       0.93786    0.77358    0.38251   1.00
H2       0.94196    0.81737    0.40709   1.00
C6       0.99079    0.80724    0.36850   1.00
H2       0.99504    0.72642    0.36718   1.00
H2       1.00379    0.68263    0.39052   1.00
C6       0.94220    0.69276    0.38152   1.00
H2       1.00881    0.78274    0.35716   1.00
C6       0.97158    0.82832    0.33429   1.00
H2       1.01106    0.82760    0.38369   1.00
C6       0.94172    0.67168    0.34230   1.00
H2       0.93224    0.67240    0.40482   1.00
H2       0.92093    0.71726    0.38072   1.00
H2       0.95186    0.80822    0.31822   1.00
H2       0.95448    0.85380    0.34477   1.00
H2       0.99431    0.83898    0.31378   1.00
H2       0.95076    0.69178    0.31851   1.00
H2       0.96177    0.64620    0.34282   1.00
H2       0.91179    0.66102    0.33590   1.00
C4       0.72933    0.49980    0.49925   1.00
C4       0.77067    0.50020    0.50075   1.00
C3       0.70756    0.53281    0.48660   1.00
C3       0.79244    0.53511    0.49519   1.00
C4       0.70850    0.46586    0.51087   1.00
C4       0.79150    0.46500    0.50767   1.00
C2       0.64648    0.50061    0.49985   1.00
C2       0.85352    0.50060    0.49982   1.00
C3       0.66690    0.53314    0.48732   1.00
C3       0.83310    0.53504    0.49441   1.00
C3       0.66694    0.46713    0.51099   1.00
C3       0.83306    0.46604    0.50692   1.00
H1       0.72112    0.55867    0.47503   1.00
H1       0.77888    0.56329    0.49228   1.00
C5       0.72935    0.43143    0.52147   1.00
C5       0.77065    0.42989    0.51570   1.00
H1       0.65114    0.55883    0.47781   1.00
H1       0.84886    0.56204    0.48979   1.00
H1       0.64947    0.44226    0.51907   1.00
H1       0.85053    0.44046    0.51237   1.00
C6       0.70766    0.39724    0.54024   1.00
C6       0.79234    0.39089    0.51655   1.00
H2       0.72642    0.38251    0.56214   1.00
H2       0.68263    0.40709    0.55804   1.00
C6       0.69276    0.36850    0.50921   1.00
H2       0.77358    0.36718    0.50496   1.00
H2       0.81737    0.39052    0.49621   1.00
C6       0.80724    0.38152    0.55780   1.00
H2       0.71726    0.35716    0.49119   1.00
C6       0.67168    0.33429    0.52842   1.00
H2       0.67240    0.38369    0.48894   1.00
C6       0.82832    0.34230    0.55828   1.00
H2       0.82760    0.40482    0.56776   1.00
H2       0.78274    0.38072    0.57907   1.00
H2       0.69178    0.31822    0.54814   1.00
H2       0.64620    0.34477    0.54552   1.00
H2       0.66102    0.31378    0.50569   1.00
H2       0.80822    0.31851    0.54924   1.00
H2       0.85380    0.34282    0.53823   1.00
H2       0.83898    0.33590    0.58821   1.00
C4       1.27067    0.49980    0.50075   1.00
C4       1.22933    0.50020    0.49925   1.00
C3       1.29244    0.53281    0.51340   1.00
C3       1.20756    0.53511    0.50481   1.00
C4       1.29150    0.46586    0.48913   1.00
C4       1.20850    0.46500    0.49233   1.00
C2       1.35352    0.50061    0.50015   1.00
C2       1.14648    0.50060    0.50018   1.00
C3       1.33310    0.53314    0.51268   1.00
C3       1.16690    0.53504    0.50559   1.00
C3       1.33306    0.46713    0.48901   1.00
C3       1.16694    0.46604    0.49308   1.00
H1       1.27888    0.55867    0.52497   1.00
H1       1.22112    0.56329    0.50772   1.00
C5       1.27065    0.43143    0.47853   1.00
C5       1.22935    0.42989    0.48430   1.00
H1       1.34886    0.55883    0.52219   1.00
H1       1.15114    0.56204    0.51021   1.00
H1       1.35053    0.44226    0.48093   1.00
H1       1.14947    0.44046    0.48763   1.00
C6       1.29234    0.39724    0.45976   1.00
C6       1.20766    0.39089    0.48345   1.00
H2       1.27358    0.38251    0.43786   1.00
H2       1.31737    0.40709    0.44196   1.00
C6       1.30724    0.36850    0.49079   1.00
H2       1.22642    0.36718    0.49504   1.00
H2       1.18263    0.39052    0.50379   1.00
C6       1.19276    0.38152    0.44220   1.00
H2       1.28274    0.35716    0.50881   1.00
C6       1.32832    0.33429    0.47158   1.00
H2       1.32760    0.38369    0.51106   1.00
C6       1.17168    0.34230    0.44172   1.00
H2       1.17240    0.40482    0.43224   1.00
H2       1.21726    0.38072    0.42093   1.00
H2       1.30822    0.31822    0.45186   1.00
H2       1.35380    0.34477    0.45448   1.00
H2       1.33898    0.31378    0.49431   1.00
H2       1.19178    0.31851    0.45076   1.00
H2       1.14620    0.34282    0.46177   1.00
H2       1.16102    0.33590    0.41179   1.00
C4       0.99925    0.22933    0.49980   1.00
C4       1.00075    0.27067    0.50020   1.00
C3       0.98660    0.20756    0.53281   1.00
C3       0.99519    0.29244    0.53511   1.00
C4       1.01087    0.20850    0.46586   1.00
C4       1.00767    0.29150    0.46500   1.00
C2       0.99985    0.14648    0.50061   1.00
C2       0.99982    0.35352    0.50060   1.00
C3       0.98732    0.16690    0.53314   1.00
C3       0.99441    0.33310    0.53504   1.00
C3       1.01099    0.16694    0.46713   1.00
C3       1.00692    0.33306    0.46604   1.00
H1       0.97503    0.22112    0.55867   1.00
H1       0.99228    0.27888    0.56329   1.00
C5       1.02147    0.22935    0.43143   1.00
C5       1.01570    0.27065    0.42989   1.00
H1       0.97781    0.15114    0.55883   1.00
H1       0.98979    0.34886    0.56204   1.00
H1       1.01907    0.14947    0.44226   1.00
H1       1.01237    0.35053    0.44046   1.00
C6       1.04024    0.20766    0.39724   1.00
C6       1.01655    0.29234    0.39089   1.00
H2       1.06214    0.22642    0.38251   1.00
H2       1.05804    0.18263    0.40709   1.00
C6       1.00921    0.19276    0.36850   1.00
H2       1.00496    0.27358    0.36718   1.00
H2       0.99621    0.31737    0.39052   1.00
C6       1.05780    0.30724    0.38152   1.00
H2       0.99119    0.21726    0.35716   1.00
C6       1.02842    0.17168    0.33429   1.00
H2       0.98894    0.17240    0.38369   1.00
C6       1.05828    0.32832    0.34230   1.00
H2       1.06776    0.32760    0.40482   1.00
H2       1.07907    0.28274    0.38072   1.00
H2       1.04814    0.19178    0.31822   1.00
H2       1.04552    0.14620    0.34477   1.00
H2       1.00569    0.16102    0.31378   1.00
H2       1.04924    0.30822    0.31851   1.00
H2       1.03823    0.35380    0.34282   1.00
H2       1.08821    0.33898    0.33590   1.00
C4       0.99980    0.49925    0.22933   1.00
C4       1.00020    0.50075    0.27067   1.00
C3       1.03281    0.48660    0.20756   1.00
C3       1.03511    0.49519    0.29244   1.00
C4       0.96586    0.51087    0.20850   1.00
C4       0.96500    0.50767    0.29150   1.00
C2       1.00061    0.49985    0.14648   1.00
C2       1.00060    0.49982    0.35352   1.00
C3       1.03314    0.48732    0.16690   1.00
C3       1.03504    0.49441    0.33310   1.00
C3       0.96713    0.51099    0.16694   1.00
C3       0.96604    0.50692    0.33306   1.00
H1       1.05867    0.47503    0.22112   1.00
H1       1.06329    0.49228    0.27888   1.00
C5       0.93143    0.52147    0.22935   1.00
C5       0.92989    0.51570    0.27065   1.00
H1       1.05883    0.47781    0.15114   1.00
H1       1.06204    0.48979    0.34886   1.00
H1       0.94226    0.51907    0.14947   1.00
H1       0.94046    0.51237    0.35053   1.00
C6       0.89724    0.54024    0.20766   1.00
C6       0.89089    0.51655    0.29234   1.00
H2       0.88251    0.56214    0.22642   1.00
H2       0.90709    0.55804    0.18263   1.00
C6       0.86850    0.50921    0.19276   1.00
H2       0.86718    0.50496    0.27358   1.00
H2       0.89052    0.49621    0.31737   1.00
C6       0.88152    0.55780    0.30724   1.00
H2       0.85716    0.49119    0.21726   1.00
C6       0.83429    0.52842    0.17168   1.00
H2       0.88369    0.48894    0.17240   1.00
C6       0.84230    0.55828    0.32832   1.00
H2       0.90482    0.56776    0.32760   1.00
H2       0.88072    0.57907    0.28274   1.00
H2       0.81822    0.54814    0.19178   1.00
H2       0.84477    0.54552    0.14620   1.00
H2       0.81378    0.50569    0.16102   1.00
H2       0.81851    0.54924    0.30822   1.00
H2       0.84282    0.53823    0.35380   1.00
H2       0.83590    0.58821    0.33898   1.00
