data_IRMOF10_SG202_interpen_Ligand4lp_label_l.

_audit_creation_method             'generated by an auxiliary program of Tobunporous'

_symmetry_space_group_name_H-M     'P 1'
_symmetry_Int_Tables_number        1
_symmetry_cell_setting             triclinic

_cell_length_a                    34.2800
_cell_length_b                    34.2800
_cell_length_c                    34.2800
_cell_angle_alpha                 90.0000
_cell_angle_beta                  90.0000
_cell_angle_gamma                 90.0000

loop_
_atom_site_label
_atom_site_fract_x
_atom_site_fract_y
_atom_site_fract_z
_atom_site_occupancy
O1       0.75000    0.75000    0.75000   1.00
Zn1      0.71720    0.78280    0.78280   1.00
Zn1      0.78280    0.71720    0.78280   1.00
Zn1      0.78280    0.78280    0.71720   1.00
Zn1      0.71720    0.71720    0.71720   1.00
O2       0.72650    0.77350    0.83820   1.00
O2       0.72650    0.83820    0.77350   1.00
O2       0.66180    0.77350    0.77350   1.00
O2       0.77350    0.72650    0.83820   1.00
O2       0.83820    0.72650    0.77350   1.00
O2       0.77350    0.66180    0.77350   1.00
O2       0.77350    0.83820    0.72650   1.00
O2       0.83820    0.77350    0.72650   1.00
O2       0.77350    0.77350    0.66180   1.00
O2       0.66180    0.72650    0.72650   1.00
O2       0.72650    0.66180    0.72650   1.00
O2       0.72650    0.72650    0.66180   1.00
C1       0.75000    0.75000    0.85520   1.00
C1       0.75000    0.85520    0.75000   1.00
C1       0.64480    0.75000    0.75000   1.00
C1       0.85520    0.75000    0.75000   1.00
C1       0.75000    0.64480    0.75000   1.00
C1       0.75000    0.75000    0.64480   1.00
O1       0.25000    0.25000    0.75000   1.00
Zn1      0.21720    0.28280    0.78280   1.00
Zn1      0.28280    0.21720    0.78280   1.00
Zn1      0.28280    0.28280    0.71720   1.00
Zn1      0.21720    0.21720    0.71720   1.00
O2       0.22650    0.27350    0.83820   1.00
O2       0.22650    0.33820    0.77350   1.00
O2       0.16180    0.27350    0.77350   1.00
O2       0.27350    0.22650    0.83820   1.00
O2       0.33820    0.22650    0.77350   1.00
O2       0.27350    0.16180    0.77350   1.00
O2       0.27350    0.33820    0.72650   1.00
O2       0.33820    0.27350    0.72650   1.00
O2       0.27350    0.27350    0.66180   1.00
O2       0.16180    0.22650    0.72650   1.00
O2       0.22650    0.16180    0.72650   1.00
O2       0.22650    0.22650    0.66180   1.00
C1       0.25000    0.25000    0.85520   1.00
C1       0.25000    0.35520    0.75000   1.00
C1       0.14480    0.25000    0.75000   1.00
C1       0.35520    0.25000    0.75000   1.00
C1       0.25000    0.14480    0.75000   1.00
C1       0.25000    0.25000    0.64480   1.00
O1       0.25000    0.75000    0.25000   1.00
Zn1      0.21720    0.78280    0.28280   1.00
Zn1      0.28280    0.71720    0.28280   1.00
Zn1      0.28280    0.78280    0.21720   1.00
Zn1      0.21720    0.71720    0.21720   1.00
O2       0.22650    0.77350    0.33820   1.00
O2       0.22650    0.83820    0.27350   1.00
O2       0.16180    0.77350    0.27350   1.00
O2       0.27350    0.72650    0.33820   1.00
O2       0.33820    0.72650    0.27350   1.00
O2       0.27350    0.66180    0.27350   1.00
O2       0.27350    0.83820    0.22650   1.00
O2       0.33820    0.77350    0.22650   1.00
O2       0.27350    0.77350    0.16180   1.00
O2       0.16180    0.72650    0.22650   1.00
O2       0.22650    0.66180    0.22650   1.00
O2       0.22650    0.72650    0.16180   1.00
C1       0.25000    0.75000    0.35520   1.00
C1       0.25000    0.85520    0.25000   1.00
C1       0.14480    0.75000    0.25000   1.00
C1       0.35520    0.75000    0.25000   1.00
C1       0.25000    0.64480    0.25000   1.00
C1       0.25000    0.75000    0.14480   1.00
O1       0.75000    0.25000    0.25000   1.00
Zn1      0.71720    0.28280    0.28280   1.00
Zn1      0.78280    0.21720    0.28280   1.00
Zn1      0.78280    0.28280    0.21720   1.00
Zn1      0.71720    0.21720    0.21720   1.00
O2       0.72650    0.27350    0.33820   1.00
O2       0.72650    0.33820    0.27350   1.00
O2       0.66180    0.27350    0.27350   1.00
O2       0.77350    0.22650    0.33820   1.00
O2       0.83820    0.22650    0.27350   1.00
O2       0.77350    0.16180    0.27350   1.00
O2       0.77350    0.33820    0.22650   1.00
O2       0.83820    0.27350    0.22650   1.00
O2       0.77350    0.27350    0.16180   1.00
O2       0.66180    0.22650    0.22650   1.00
O2       0.72650    0.16180    0.22650   1.00
O2       0.72650    0.22650    0.16180   1.00
C1       0.75000    0.25000    0.35520   1.00
C1       0.75000    0.35520    0.25000   1.00
C1       0.64480    0.25000    0.25000   1.00
C1       0.85520    0.25000    0.25000   1.00
C1       0.75000    0.14480    0.25000   1.00
C1       0.75000    0.25000    0.14480   1.00
O1       0.25000    0.25000    0.25000   1.00
Zn1      0.28280    0.21720    0.21720   1.00
Zn1      0.21720    0.28280    0.21720   1.00
Zn1      0.21720    0.21720    0.28280   1.00
Zn1      0.28280    0.28280    0.28280   1.00
O2       0.27350    0.22650    0.16180   1.00
O2       0.27350    0.16180    0.22650   1.00
O2       0.33820    0.22650    0.22650   1.00
O2       0.22650    0.27350    0.16180   1.00
O2       0.16180    0.27350    0.22650   1.00
O2       0.22650    0.33820    0.22650   1.00
O2       0.22650    0.16180    0.27350   1.00
O2       0.16180    0.22650    0.27350   1.00
O2       0.22650    0.22650    0.33820   1.00
O2       0.33820    0.27350    0.27350   1.00
O2       0.27350    0.33820    0.27350   1.00
O2       0.27350    0.27350    0.33820   1.00
C1       0.25000    0.25000    0.14480   1.00
C1       0.25000    0.14480    0.25000   1.00
C1       0.35520    0.25000    0.25000   1.00
C1       0.14480    0.25000    0.25000   1.00
C1       0.25000    0.35520    0.25000   1.00
C1       0.25000    0.25000    0.35520   1.00
O1       0.75000    0.75000    0.25000   1.00
Zn1      0.78280    0.71720    0.21720   1.00
Zn1      0.71720    0.78280    0.21720   1.00
Zn1      0.71720    0.71720    0.28280   1.00
Zn1      0.78280    0.78280    0.28280   1.00
O2       0.77350    0.72650    0.16180   1.00
O2       0.77350    0.66180    0.22650   1.00
O2       0.83820    0.72650    0.22650   1.00
O2       0.72650    0.77350    0.16180   1.00
O2       0.66180    0.77350    0.22650   1.00
O2       0.72650    0.83820    0.22650   1.00
O2       0.72650    0.66180    0.27350   1.00
O2       0.66180    0.72650    0.27350   1.00
O2       0.72650    0.72650    0.33820   1.00
O2       0.83820    0.77350    0.27350   1.00
O2       0.77350    0.83820    0.27350   1.00
O2       0.77350    0.77350    0.33820   1.00
C1       0.75000    0.75000    0.14480   1.00
C1       0.75000    0.64480    0.25000   1.00
C1       0.85520    0.75000    0.25000   1.00
C1       0.64480    0.75000    0.25000   1.00
C1       0.75000    0.85520    0.25000   1.00
C1       0.75000    0.75000    0.35520   1.00
O1       0.75000    0.25000    0.75000   1.00
Zn1      0.78280    0.21720    0.71720   1.00
Zn1      0.71720    0.28280    0.71720   1.00
Zn1      0.71720    0.21720    0.78280   1.00
Zn1      0.78280    0.28280    0.78280   1.00
O2       0.77350    0.22650    0.66180   1.00
O2       0.77350    0.16180    0.72650   1.00
O2       0.83820    0.22650    0.72650   1.00
O2       0.72650    0.27350    0.66180   1.00
O2       0.66180    0.27350    0.72650   1.00
O2       0.72650    0.33820    0.72650   1.00
O2       0.72650    0.16180    0.77350   1.00
O2       0.66180    0.22650    0.77350   1.00
O2       0.72650    0.22650    0.83820   1.00
O2       0.83820    0.27350    0.77350   1.00
O2       0.77350    0.33820    0.77350   1.00
O2       0.77350    0.27350    0.83820   1.00
C1       0.75000    0.25000    0.64480   1.00
C1       0.75000    0.14480    0.75000   1.00
C1       0.85520    0.25000    0.75000   1.00
C1       0.64480    0.25000    0.75000   1.00
C1       0.75000    0.35520    0.75000   1.00
C1       0.75000    0.25000    0.85520   1.00
O1       0.25000    0.75000    0.75000   1.00
Zn1      0.28280    0.71720    0.71720   1.00
Zn1      0.21720    0.78280    0.71720   1.00
Zn1      0.21720    0.71720    0.78280   1.00
Zn1      0.28280    0.78280    0.78280   1.00
O2       0.27350    0.72650    0.66180   1.00
O2       0.27350    0.66180    0.72650   1.00
O2       0.33820    0.72650    0.72650   1.00
O2       0.22650    0.77350    0.66180   1.00
O2       0.16180    0.77350    0.72650   1.00
O2       0.22650    0.83820    0.72650   1.00
O2       0.22650    0.66180    0.77350   1.00
O2       0.16180    0.72650    0.77350   1.00
O2       0.22650    0.72650    0.83820   1.00
O2       0.33820    0.77350    0.77350   1.00
O2       0.27350    0.83820    0.77350   1.00
O2       0.27350    0.77350    0.83820   1.00
C1       0.25000    0.75000    0.64480   1.00
C1       0.25000    0.64480    0.75000   1.00
C1       0.35520    0.75000    0.75000   1.00
C1       0.14480    0.75000    0.75000   1.00
C1       0.25000    0.85520    0.75000   1.00
C1       0.25000    0.75000    0.85520   1.00
O1       1.00000    1.00000    1.00000   1.00
Zn1      0.96720    1.03280    1.03280   1.00
Zn1      1.03280    0.96720    1.03280   1.00
Zn1      1.03280    1.03280    0.96720   1.00
Zn1      0.96720    0.96720    0.96720   1.00
O2       0.97650    1.02350    1.08820   1.00
O2       0.97650    1.08820    1.02350   1.00
O2       0.91180    1.02350    1.02350   1.00
O2       1.02350    0.97650    1.08820   1.00
O2       1.08820    0.97650    1.02350   1.00
O2       1.02350    0.91180    1.02350   1.00
O2       1.02350    1.08820    0.97650   1.00
O2       1.08820    1.02350    0.97650   1.00
O2       1.02350    1.02350    0.91180   1.00
O2       0.91180    0.97650    0.97650   1.00
O2       0.97650    0.91180    0.97650   1.00
O2       0.97650    0.97650    0.91180   1.00
C1       1.00000    1.00000    1.10520   1.00
C1       1.00000    1.10520    1.00000   1.00
C1       0.89480    1.00000    1.00000   1.00
C1       1.10520    1.00000    1.00000   1.00
C1       1.00000    0.89480    1.00000   1.00
C1       1.00000    1.00000    0.89480   1.00
O1       0.50000    0.50000    1.00000   1.00
Zn1      0.46720    0.53280    1.03280   1.00
Zn1      0.53280    0.46720    1.03280   1.00
Zn1      0.53280    0.53280    0.96720   1.00
Zn1      0.46720    0.46720    0.96720   1.00
O2       0.47650    0.52350    1.08820   1.00
O2       0.47650    0.58820    1.02350   1.00
O2       0.41180    0.52350    1.02350   1.00
O2       0.52350    0.47650    1.08820   1.00
O2       0.58820    0.47650    1.02350   1.00
O2       0.52350    0.41180    1.02350   1.00
O2       0.52350    0.58820    0.97650   1.00
O2       0.58820    0.52350    0.97650   1.00
O2       0.52350    0.52350    0.91180   1.00
O2       0.41180    0.47650    0.97650   1.00
O2       0.47650    0.41180    0.97650   1.00
O2       0.47650    0.47650    0.91180   1.00
C1       0.50000    0.50000    1.10520   1.00
C1       0.50000    0.60520    1.00000   1.00
C1       0.39480    0.50000    1.00000   1.00
C1       0.60520    0.50000    1.00000   1.00
C1       0.50000    0.39480    1.00000   1.00
C1       0.50000    0.50000    0.89480   1.00
O1       0.50000    1.00000    0.50000   1.00
Zn1      0.46720    1.03280    0.53280   1.00
Zn1      0.53280    0.96720    0.53280   1.00
Zn1      0.53280    1.03280    0.46720   1.00
Zn1      0.46720    0.96720    0.46720   1.00
O2       0.47650    1.02350    0.58820   1.00
O2       0.47650    1.08820    0.52350   1.00
O2       0.41180    1.02350    0.52350   1.00
O2       0.52350    0.97650    0.58820   1.00
O2       0.58820    0.97650    0.52350   1.00
O2       0.52350    0.91180    0.52350   1.00
O2       0.52350    1.08820    0.47650   1.00
O2       0.58820    1.02350    0.47650   1.00
O2       0.52350    1.02350    0.41180   1.00
O2       0.41180    0.97650    0.47650   1.00
O2       0.47650    0.91180    0.47650   1.00
O2       0.47650    0.97650    0.41180   1.00
C1       0.50000    1.00000    0.60520   1.00
C1       0.50000    1.10520    0.50000   1.00
C1       0.39480    1.00000    0.50000   1.00
C1       0.60520    1.00000    0.50000   1.00
C1       0.50000    0.89480    0.50000   1.00
C1       0.50000    1.00000    0.39480   1.00
O1       1.00000    0.50000    0.50000   1.00
Zn1      0.96720    0.53280    0.53280   1.00
Zn1      1.03280    0.46720    0.53280   1.00
Zn1      1.03280    0.53280    0.46720   1.00
Zn1      0.96720    0.46720    0.46720   1.00
O2       0.97650    0.52350    0.58820   1.00
O2       0.97650    0.58820    0.52350   1.00
O2       0.91180    0.52350    0.52350   1.00
O2       1.02350    0.47650    0.58820   1.00
O2       1.08820    0.47650    0.52350   1.00
O2       1.02350    0.41180    0.52350   1.00
O2       1.02350    0.58820    0.47650   1.00
O2       1.08820    0.52350    0.47650   1.00
O2       1.02350    0.52350    0.41180   1.00
O2       0.91180    0.47650    0.47650   1.00
O2       0.97650    0.41180    0.47650   1.00
O2       0.97650    0.47650    0.41180   1.00
C1       1.00000    0.50000    0.60520   1.00
C1       1.00000    0.60520    0.50000   1.00
C1       0.89480    0.50000    0.50000   1.00
C1       1.10520    0.50000    0.50000   1.00
C1       1.00000    0.39480    0.50000   1.00
C1       1.00000    0.50000    0.39480   1.00
O1       0.50000    0.50000    0.50000   1.00
Zn1      0.53280    0.46720    0.46720   1.00
Zn1      0.46720    0.53280    0.46720   1.00
Zn1      0.46720    0.46720    0.53280   1.00
Zn1      0.53280    0.53280    0.53280   1.00
O2       0.52350    0.47650    0.41180   1.00
O2       0.52350    0.41180    0.47650   1.00
O2       0.58820    0.47650    0.47650   1.00
O2       0.47650    0.52350    0.41180   1.00
O2       0.41180    0.52350    0.47650   1.00
O2       0.47650    0.58820    0.47650   1.00
O2       0.47650    0.41180    0.52350   1.00
O2       0.41180    0.47650    0.52350   1.00
O2       0.47650    0.47650    0.58820   1.00
O2       0.58820    0.52350    0.52350   1.00
O2       0.52350    0.58820    0.52350   1.00
O2       0.52350    0.52350    0.58820   1.00
C1       0.50000    0.50000    0.39480   1.00
C1       0.50000    0.39480    0.50000   1.00
C1       0.60520    0.50000    0.50000   1.00
C1       0.39480    0.50000    0.50000   1.00
C1       0.50000    0.60520    0.50000   1.00
C1       0.50000    0.50000    0.60520   1.00
O1       1.00000    1.00000    0.50000   1.00
Zn1      1.03280    0.96720    0.46720   1.00
Zn1      0.96720    1.03280    0.46720   1.00
Zn1      0.96720    0.96720    0.53280   1.00
Zn1      1.03280    1.03280    0.53280   1.00
O2       1.02350    0.97650    0.41180   1.00
O2       1.02350    0.91180    0.47650   1.00
O2       1.08820    0.97650    0.47650   1.00
O2       0.97650    1.02350    0.41180   1.00
O2       0.91180    1.02350    0.47650   1.00
O2       0.97650    1.08820    0.47650   1.00
O2       0.97650    0.91180    0.52350   1.00
O2       0.91180    0.97650    0.52350   1.00
O2       0.97650    0.97650    0.58820   1.00
O2       1.08820    1.02350    0.52350   1.00
O2       1.02350    1.08820    0.52350   1.00
O2       1.02350    1.02350    0.58820   1.00
C1       1.00000    1.00000    0.39480   1.00
C1       1.00000    0.89480    0.50000   1.00
C1       1.10520    1.00000    0.50000   1.00
C1       0.89480    1.00000    0.50000   1.00
C1       1.00000    1.10520    0.50000   1.00
C1       1.00000    1.00000    0.60520   1.00
O1       1.00000    0.50000    1.00000   1.00
Zn1      1.03280    0.46720    0.96720   1.00
Zn1      0.96720    0.53280    0.96720   1.00
Zn1      0.96720    0.46720    1.03280   1.00
Zn1      1.03280    0.53280    1.03280   1.00
O2       1.02350    0.47650    0.91180   1.00
O2       1.02350    0.41180    0.97650   1.00
O2       1.08820    0.47650    0.97650   1.00
O2       0.97650    0.52350    0.91180   1.00
O2       0.91180    0.52350    0.97650   1.00
O2       0.97650    0.58820    0.97650   1.00
O2       0.97650    0.41180    1.02350   1.00
O2       0.91180    0.47650    1.02350   1.00
O2       0.97650    0.47650    1.08820   1.00
O2       1.08820    0.52350    1.02350   1.00
O2       1.02350    0.58820    1.02350   1.00
O2       1.02350    0.52350    1.08820   1.00
C1       1.00000    0.50000    0.89480   1.00
C1       1.00000    0.39480    1.00000   1.00
C1       1.10520    0.50000    1.00000   1.00
C1       0.89480    0.50000    1.00000   1.00
C1       1.00000    0.60520    1.00000   1.00
C1       1.00000    0.50000    1.10520   1.00
O1       0.50000    1.00000    1.00000   1.00
Zn1      0.53280    0.96720    0.96720   1.00
Zn1      0.46720    1.03280    0.96720   1.00
Zn1      0.46720    0.96720    1.03280   1.00
Zn1      0.53280    1.03280    1.03280   1.00
O2       0.52350    0.97650    0.91180   1.00
O2       0.52350    0.91180    0.97650   1.00
O2       0.58820    0.97650    0.97650   1.00
O2       0.47650    1.02350    0.91180   1.00
O2       0.41180    1.02350    0.97650   1.00
O2       0.47650    1.08820    0.97650   1.00
O2       0.47650    0.91180    1.02350   1.00
O2       0.41180    0.97650    1.02350   1.00
O2       0.47650    0.97650    1.08820   1.00
O2       0.58820    1.02350    1.02350   1.00
O2       0.52350    1.08820    1.02350   1.00
O2       0.52350    1.02350    1.08820   1.00
C1       0.50000    1.00000    0.89480   1.00
C1       0.50000    0.89480    1.00000   1.00
C1       0.60520    1.00000    1.00000   1.00
C1       0.39480    1.00000    1.00000   1.00
C1       0.50000    1.10520    1.00000   1.00
C1       0.50000    1.00000    1.10520   1.00
C4       0.74590    0.75249    0.98025   1.00
C4       0.74576    0.75403    1.02191   1.00
C3       0.72532    0.72328    0.95897   1.00
C3       0.72183    0.72910    1.04504   1.00
C3       0.76734    0.78096    0.95854   1.00
C3       0.77026    0.78141    1.04170   1.00
C2       0.74460    0.75047    0.89595   1.00
C2       0.74686    0.75580    1.10622   1.00
C3       0.72448    0.72236    0.91811   1.00
C3       0.72246    0.72977    1.08591   1.00
C3       0.76555    0.77913    0.91696   1.00
C3       0.77020    0.78100    1.08336   1.00
H1       0.71049    0.70136    0.97237   1.00
H1       0.70276    0.70979    1.03306   1.00
C5       0.78994    0.81009    0.97835   1.00
C5       0.79378    0.80836    1.01998   1.00
H1       0.70897    0.70063    0.90451   1.00
H1       0.70461    0.71093    1.10091   1.00
H1       0.78019    0.79902    0.90052   1.00
H1       0.78743    0.79985    1.09848   1.00
C6       0.80905    0.84248    0.95515   1.00
C6       0.82261    0.83427    1.04119   1.00
H2       0.78845    0.85325    0.93345   1.00
H2       0.83789    0.81703    1.06310   1.00
H2       0.81382    0.86835    0.97286   1.00
H2       0.84646    0.84320    1.02228   1.00
C6       0.84871    0.83000    0.93606   1.00
C6       0.80334    0.87154    1.05942   1.00
H2       0.84561    0.80110    0.92292   1.00
H2       0.77604    0.86348    1.07383   1.00
C6       0.86667    0.85782    0.90459   1.00
C6       0.82820    0.89578    1.08911   1.00
H2       0.87002    0.82633    0.95949   1.00
H2       0.79482    0.89077    1.03546   1.00
C6       0.84100    0.85974    0.86735   1.00
C6       0.83630    0.87250    1.12708   1.00
C6       0.87266    0.89962    0.92074   1.00
C6       0.86747    0.90903    1.07107   1.00
C6       0.90720    0.84159    0.89245   1.00
C6       0.80484    0.93289    1.10054   1.00
H2       0.83569    0.83060    0.85558   1.00
H2       0.80915    0.86217    1.14020   1.00
H2       0.81281    0.87315    0.87330   1.00
H2       0.85471    0.84720    1.12154   1.00
H2       0.85506    0.87701    0.84459   1.00
H2       0.85127    0.89054    1.14863   1.00
H2       0.88773    0.91802    0.89955   1.00
H2       0.88330    0.92821    1.09098   1.00
H2       0.84476    0.91343    0.92725   1.00
H2       0.88620    0.88406    1.06494   1.00
H2       0.88998    0.89902    0.94745   1.00
H2       0.86263    0.92481    1.04385   1.00
H2       0.90456    0.81220    0.88042   1.00
H2       0.77693    0.92515    1.11383   1.00
H2       0.92084    0.85993    0.87025   1.00
H2       0.82093    0.95070    1.12149   1.00
H2       0.92695    0.84027    0.91739   1.00
H2       0.79888    0.95099    1.07502   1.00
C4       0.75249    0.98025    0.74590   1.00
C4       0.75403    1.02191    0.74576   1.00
C3       0.72328    0.95897    0.72532   1.00
C3       0.72910    1.04504    0.72183   1.00
C3       0.78096    0.95854    0.76734   1.00
C3       0.78141    1.04170    0.77026   1.00
C2       0.75047    0.89595    0.74460   1.00
C2       0.75580    1.10622    0.74686   1.00
C3       0.72236    0.91811    0.72448   1.00
C3       0.72977    1.08591    0.72246   1.00
C3       0.77913    0.91696    0.76555   1.00
C3       0.78100    1.08336    0.77020   1.00
H1       0.70136    0.97237    0.71049   1.00
H1       0.70979    1.03306    0.70276   1.00
C5       0.81009    0.97835    0.78994   1.00
C5       0.80836    1.01998    0.79378   1.00
H1       0.70063    0.90451    0.70897   1.00
H1       0.71093    1.10091    0.70461   1.00
H1       0.79902    0.90052    0.78019   1.00
H1       0.79985    1.09848    0.78743   1.00
C6       0.84248    0.95515    0.80905   1.00
C6       0.83427    1.04119    0.82261   1.00
H2       0.85325    0.93345    0.78845   1.00
H2       0.81703    1.06310    0.83789   1.00
H2       0.86835    0.97286    0.81382   1.00
H2       0.84320    1.02228    0.84646   1.00
C6       0.83000    0.93606    0.84871   1.00
C6       0.87154    1.05942    0.80334   1.00
H2       0.80110    0.92292    0.84561   1.00
H2       0.86348    1.07383    0.77604   1.00
C6       0.85782    0.90459    0.86667   1.00
C6       0.89578    1.08911    0.82820   1.00
H2       0.82633    0.95949    0.87002   1.00
H2       0.89077    1.03546    0.79482   1.00
C6       0.85974    0.86735    0.84100   1.00
C6       0.87250    1.12708    0.83630   1.00
C6       0.89962    0.92074    0.87266   1.00
C6       0.90903    1.07107    0.86747   1.00
C6       0.84159    0.89245    0.90720   1.00
C6       0.93289    1.10054    0.80484   1.00
H2       0.83060    0.85558    0.83569   1.00
H2       0.86217    1.14020    0.80915   1.00
H2       0.87315    0.87330    0.81281   1.00
H2       0.84720    1.12154    0.85471   1.00
H2       0.87701    0.84459    0.85506   1.00
H2       0.89054    1.14863    0.85127   1.00
H2       0.91802    0.89955    0.88773   1.00
H2       0.92821    1.09098    0.88330   1.00
H2       0.91343    0.92725    0.84476   1.00
H2       0.88406    1.06494    0.88620   1.00
H2       0.89902    0.94745    0.88998   1.00
H2       0.92481    1.04385    0.86263   1.00
H2       0.81220    0.88042    0.90456   1.00
H2       0.92515    1.11383    0.77693   1.00
H2       0.85993    0.87025    0.92084   1.00
H2       0.95070    1.12149    0.82093   1.00
H2       0.84027    0.91739    0.92695   1.00
H2       0.95099    1.07502    0.79888   1.00
C4       0.51975    0.74590    0.74751   1.00
C4       0.47809    0.74576    0.74597   1.00
C3       0.54103    0.72532    0.77672   1.00
C3       0.45496    0.72183    0.77090   1.00
C3       0.54146    0.76734    0.71904   1.00
C3       0.45830    0.77026    0.71859   1.00
C2       0.60405    0.74460    0.74953   1.00
C2       0.39378    0.74686    0.74420   1.00
C3       0.58189    0.72448    0.77764   1.00
C3       0.41409    0.72246    0.77023   1.00
C3       0.58304    0.76555    0.72087   1.00
C3       0.41664    0.77020    0.71900   1.00
H1       0.52763    0.71049    0.79864   1.00
H1       0.46694    0.70276    0.79021   1.00
C5       0.52165    0.78994    0.68991   1.00
C5       0.48002    0.79378    0.69164   1.00
H1       0.59549    0.70897    0.79937   1.00
H1       0.39909    0.70461    0.78907   1.00
H1       0.59948    0.78019    0.70098   1.00
H1       0.40152    0.78743    0.70015   1.00
C6       0.54485    0.80905    0.65752   1.00
C6       0.45881    0.82261    0.66573   1.00
H2       0.56655    0.78845    0.64675   1.00
H2       0.43690    0.83789    0.68297   1.00
H2       0.52714    0.81382    0.63165   1.00
H2       0.47772    0.84646    0.65680   1.00
C6       0.56394    0.84871    0.67000   1.00
C6       0.44058    0.80334    0.62846   1.00
H2       0.57708    0.84561    0.69890   1.00
H2       0.42617    0.77604    0.63652   1.00
C6       0.59541    0.86667    0.64218   1.00
C6       0.41089    0.82820    0.60422   1.00
H2       0.54051    0.87002    0.67367   1.00
H2       0.46454    0.79482    0.60923   1.00
C6       0.63265    0.84100    0.64026   1.00
C6       0.37292    0.83630    0.62750   1.00
C6       0.57926    0.87266    0.60038   1.00
C6       0.42893    0.86747    0.59097   1.00
C6       0.60755    0.90720    0.65841   1.00
C6       0.39946    0.80484    0.56711   1.00
H2       0.64442    0.83569    0.66940   1.00
H2       0.35980    0.80915    0.63783   1.00
H2       0.62670    0.81281    0.62685   1.00
H2       0.37846    0.85471    0.65280   1.00
H2       0.65541    0.85506    0.62299   1.00
H2       0.35137    0.85127    0.60946   1.00
H2       0.60045    0.88773    0.58198   1.00
H2       0.40902    0.88330    0.57179   1.00
H2       0.57275    0.84476    0.58657   1.00
H2       0.43506    0.88620    0.61594   1.00
H2       0.55255    0.88998    0.60098   1.00
H2       0.45615    0.86263    0.57519   1.00
H2       0.61958    0.90456    0.68780   1.00
H2       0.38617    0.77693    0.57485   1.00
H2       0.62975    0.92084    0.64007   1.00
H2       0.37851    0.82093    0.54930   1.00
H2       0.58261    0.92695    0.65973   1.00
H2       0.42498    0.79888    0.54901   1.00
C4       0.98025    0.74590    0.75249   1.00
C4       1.02191    0.74576    0.75403   1.00
C3       0.95897    0.72532    0.72328   1.00
C3       1.04504    0.72183    0.72910   1.00
C3       0.95854    0.76734    0.78096   1.00
C3       1.04170    0.77026    0.78141   1.00
C2       0.89595    0.74460    0.75047   1.00
C2       1.10622    0.74686    0.75580   1.00
C3       0.91811    0.72448    0.72236   1.00
C3       1.08591    0.72246    0.72977   1.00
C3       0.91696    0.76555    0.77913   1.00
C3       1.08336    0.77020    0.78100   1.00
H1       0.97237    0.71049    0.70136   1.00
H1       1.03306    0.70276    0.70979   1.00
C5       0.97835    0.78994    0.81009   1.00
C5       1.01998    0.79378    0.80836   1.00
H1       0.90451    0.70897    0.70063   1.00
H1       1.10091    0.70461    0.71093   1.00
H1       0.90052    0.78019    0.79902   1.00
H1       1.09848    0.78743    0.79985   1.00
C6       0.95515    0.80905    0.84248   1.00
C6       1.04119    0.82261    0.83427   1.00
H2       0.93345    0.78845    0.85325   1.00
H2       1.06310    0.83789    0.81703   1.00
H2       0.97286    0.81382    0.86835   1.00
H2       1.02228    0.84646    0.84320   1.00
C6       0.93606    0.84871    0.83000   1.00
C6       1.05942    0.80334    0.87154   1.00
H2       0.92292    0.84561    0.80110   1.00
H2       1.07383    0.77604    0.86348   1.00
C6       0.90459    0.86667    0.85782   1.00
C6       1.08911    0.82820    0.89578   1.00
H2       0.95949    0.87002    0.82633   1.00
H2       1.03546    0.79482    0.89077   1.00
C6       0.86735    0.84100    0.85974   1.00
C6       1.12708    0.83630    0.87250   1.00
C6       0.92074    0.87266    0.89962   1.00
C6       1.07107    0.86747    0.90903   1.00
C6       0.89245    0.90720    0.84159   1.00
C6       1.10054    0.80484    0.93289   1.00
H2       0.85558    0.83569    0.83060   1.00
H2       1.14020    0.80915    0.86217   1.00
H2       0.87330    0.81281    0.87315   1.00
H2       1.12154    0.85471    0.84720   1.00
H2       0.84459    0.85506    0.87701   1.00
H2       1.14863    0.85127    0.89054   1.00
H2       0.89955    0.88773    0.91802   1.00
H2       1.09098    0.88330    0.92821   1.00
H2       0.92725    0.84476    0.91343   1.00
H2       1.06494    0.88620    0.88406   1.00
H2       0.94745    0.88998    0.89902   1.00
H2       1.04385    0.86263    0.92481   1.00
H2       0.88042    0.90456    0.81220   1.00
H2       1.11383    0.77693    0.92515   1.00
H2       0.87025    0.92084    0.85993   1.00
H2       1.12149    0.82093    0.95070   1.00
H2       0.91739    0.92695    0.84027   1.00
H2       1.07502    0.79888    0.95099   1.00
C4       0.74751    0.51975    0.74590   1.00
C4       0.74597    0.47809    0.74576   1.00
C3       0.77672    0.54103    0.72532   1.00
C3       0.77090    0.45496    0.72183   1.00
C3       0.71904    0.54146    0.76734   1.00
C3       0.71859    0.45830    0.77026   1.00
C2       0.74953    0.60405    0.74460   1.00
C2       0.74420    0.39378    0.74686   1.00
C3       0.77764    0.58189    0.72448   1.00
C3       0.77023    0.41409    0.72246   1.00
C3       0.72087    0.58304    0.76555   1.00
C3       0.71900    0.41664    0.77020   1.00
H1       0.79864    0.52763    0.71049   1.00
H1       0.79021    0.46694    0.70276   1.00
C5       0.68991    0.52165    0.78994   1.00
C5       0.69164    0.48002    0.79378   1.00
H1       0.79937    0.59549    0.70897   1.00
H1       0.78907    0.39909    0.70461   1.00
H1       0.70098    0.59948    0.78019   1.00
H1       0.70015    0.40152    0.78743   1.00
C6       0.65752    0.54485    0.80905   1.00
C6       0.66573    0.45881    0.82261   1.00
H2       0.64675    0.56655    0.78845   1.00
H2       0.68297    0.43690    0.83789   1.00
H2       0.63165    0.52714    0.81382   1.00
H2       0.65680    0.47772    0.84646   1.00
C6       0.67000    0.56394    0.84871   1.00
C6       0.62846    0.44058    0.80334   1.00
H2       0.69890    0.57708    0.84561   1.00
H2       0.63652    0.42617    0.77604   1.00
C6       0.64218    0.59541    0.86667   1.00
C6       0.60422    0.41089    0.82820   1.00
H2       0.67367    0.54051    0.87002   1.00
H2       0.60923    0.46454    0.79482   1.00
C6       0.64026    0.63265    0.84100   1.00
C6       0.62750    0.37292    0.83630   1.00
C6       0.60038    0.57926    0.87266   1.00
C6       0.59097    0.42893    0.86747   1.00
C6       0.65841    0.60755    0.90720   1.00
C6       0.56711    0.39946    0.80484   1.00
H2       0.66940    0.64442    0.83569   1.00
H2       0.63783    0.35980    0.80915   1.00
H2       0.62685    0.62670    0.81281   1.00
H2       0.65280    0.37846    0.85471   1.00
H2       0.62299    0.65541    0.85506   1.00
H2       0.60946    0.35137    0.85127   1.00
H2       0.58198    0.60045    0.88773   1.00
H2       0.57179    0.40902    0.88330   1.00
H2       0.58657    0.57275    0.84476   1.00
H2       0.61594    0.43506    0.88620   1.00
H2       0.60098    0.55255    0.88998   1.00
H2       0.57519    0.45615    0.86263   1.00
H2       0.68780    0.61958    0.90456   1.00
H2       0.57485    0.38617    0.77693   1.00
H2       0.64007    0.62975    0.92084   1.00
H2       0.54930    0.37851    0.82093   1.00
H2       0.65973    0.58261    0.92695   1.00
H2       0.54901    0.42498    0.79888   1.00
C4       0.74590    0.74751    0.51975   1.00
C4       0.74576    0.74597    0.47809   1.00
C3       0.72532    0.77672    0.54103   1.00
C3       0.72183    0.77090    0.45496   1.00
C3       0.76734    0.71904    0.54146   1.00
C3       0.77026    0.71859    0.45830   1.00
C2       0.74460    0.74953    0.60405   1.00
C2       0.74686    0.74420    0.39378   1.00
C3       0.72448    0.77764    0.58189   1.00
C3       0.72246    0.77023    0.41409   1.00
C3       0.76555    0.72087    0.58304   1.00
C3       0.77020    0.71900    0.41664   1.00
H1       0.71049    0.79864    0.52763   1.00
H1       0.70276    0.79021    0.46694   1.00
C5       0.78994    0.68991    0.52165   1.00
C5       0.79378    0.69164    0.48002   1.00
H1       0.70897    0.79937    0.59549   1.00
H1       0.70461    0.78907    0.39909   1.00
H1       0.78019    0.70098    0.59948   1.00
H1       0.78743    0.70015    0.40152   1.00
C6       0.80905    0.65752    0.54485   1.00
C6       0.82261    0.66573    0.45881   1.00
H2       0.78845    0.64675    0.56655   1.00
H2       0.83789    0.68297    0.43690   1.00
H2       0.81382    0.63165    0.52714   1.00
H2       0.84646    0.65680    0.47772   1.00
C6       0.84871    0.67000    0.56394   1.00
C6       0.80334    0.62846    0.44058   1.00
H2       0.84561    0.69890    0.57708   1.00
H2       0.77604    0.63652    0.42617   1.00
C6       0.86667    0.64218    0.59541   1.00
C6       0.82820    0.60422    0.41089   1.00
H2       0.87002    0.67367    0.54051   1.00
H2       0.79482    0.60923    0.46454   1.00
C6       0.84100    0.64026    0.63265   1.00
C6       0.83630    0.62750    0.37292   1.00
C6       0.87266    0.60038    0.57926   1.00
C6       0.86747    0.59097    0.42893   1.00
C6       0.90720    0.65841    0.60755   1.00
C6       0.80484    0.56711    0.39946   1.00
H2       0.83569    0.66940    0.64442   1.00
H2       0.80915    0.63783    0.35980   1.00
H2       0.81281    0.62685    0.62670   1.00
H2       0.85471    0.65280    0.37846   1.00
H2       0.85506    0.62299    0.65541   1.00
H2       0.85127    0.60946    0.35137   1.00
H2       0.88773    0.58198    0.60045   1.00
H2       0.88330    0.57179    0.40902   1.00
H2       0.84476    0.58657    0.57275   1.00
H2       0.88620    0.61594    0.43506   1.00
H2       0.88998    0.60098    0.55255   1.00
H2       0.86263    0.57519    0.45615   1.00
H2       0.90456    0.68780    0.61958   1.00
H2       0.77693    0.57485    0.38617   1.00
H2       0.92084    0.64007    0.62975   1.00
H2       0.82093    0.54930    0.37851   1.00
H2       0.92695    0.65973    0.58261   1.00
H2       0.79888    0.54901    0.42498   1.00
C4       0.24590    0.25249    0.98025   1.00
C4       0.24576    0.25403    1.02191   1.00
C3       0.22532    0.22328    0.95897   1.00
C3       0.22183    0.22910    1.04504   1.00
C3       0.26734    0.28096    0.95854   1.00
C3       0.27026    0.28141    1.04170   1.00
C2       0.24460    0.25047    0.89595   1.00
C2       0.24686    0.25580    1.10622   1.00
C3       0.22448    0.22236    0.91811   1.00
C3       0.22246    0.22977    1.08591   1.00
C3       0.26555    0.27913    0.91696   1.00
C3       0.27020    0.28100    1.08336   1.00
H1       0.21049    0.20136    0.97237   1.00
H1       0.20276    0.20979    1.03306   1.00
C5       0.28994    0.31009    0.97835   1.00
C5       0.29378    0.30836    1.01998   1.00
H1       0.20897    0.20063    0.90451   1.00
H1       0.20461    0.21093    1.10091   1.00
H1       0.28019    0.29902    0.90052   1.00
H1       0.28743    0.29985    1.09848   1.00
C6       0.30905    0.34248    0.95515   1.00
C6       0.32261    0.33427    1.04119   1.00
H2       0.28845    0.35325    0.93345   1.00
H2       0.33789    0.31703    1.06310   1.00
H2       0.31382    0.36835    0.97286   1.00
H2       0.34646    0.34320    1.02228   1.00
C6       0.34871    0.33000    0.93606   1.00
C6       0.30334    0.37154    1.05942   1.00
H2       0.34561    0.30110    0.92292   1.00
H2       0.27604    0.36348    1.07383   1.00
C6       0.36667    0.35782    0.90459   1.00
C6       0.32820    0.39578    1.08911   1.00
H2       0.37002    0.32633    0.95949   1.00
H2       0.29482    0.39077    1.03546   1.00
C6       0.34100    0.35974    0.86735   1.00
C6       0.33630    0.37250    1.12708   1.00
C6       0.37266    0.39962    0.92074   1.00
C6       0.36747    0.40903    1.07107   1.00
C6       0.40720    0.34159    0.89245   1.00
C6       0.30484    0.43289    1.10054   1.00
H2       0.33569    0.33060    0.85558   1.00
H2       0.30915    0.36217    1.14020   1.00
H2       0.31281    0.37315    0.87330   1.00
H2       0.35471    0.34720    1.12154   1.00
H2       0.35506    0.37701    0.84459   1.00
H2       0.35127    0.39054    1.14863   1.00
H2       0.38773    0.41802    0.89955   1.00
H2       0.38330    0.42821    1.09098   1.00
H2       0.34476    0.41343    0.92725   1.00
H2       0.38620    0.38406    1.06494   1.00
H2       0.38998    0.39902    0.94745   1.00
H2       0.36263    0.42481    1.04385   1.00
H2       0.40456    0.31220    0.88042   1.00
H2       0.27693    0.42515    1.11383   1.00
H2       0.42084    0.35993    0.87025   1.00
H2       0.32093    0.45070    1.12149   1.00
H2       0.42695    0.34027    0.91739   1.00
H2       0.29888    0.45099    1.07502   1.00
C4       0.25249    0.48025    0.74590   1.00
C4       0.25403    0.52191    0.74576   1.00
C3       0.22328    0.45897    0.72532   1.00
C3       0.22910    0.54504    0.72183   1.00
C3       0.28096    0.45854    0.76734   1.00
C3       0.28141    0.54170    0.77026   1.00
C2       0.25047    0.39595    0.74460   1.00
C2       0.25580    0.60622    0.74686   1.00
C3       0.22236    0.41811    0.72448   1.00
C3       0.22977    0.58591    0.72246   1.00
C3       0.27913    0.41696    0.76555   1.00
C3       0.28100    0.58336    0.77020   1.00
H1       0.20136    0.47237    0.71049   1.00
H1       0.20979    0.53306    0.70276   1.00
C5       0.31009    0.47835    0.78994   1.00
C5       0.30836    0.51998    0.79378   1.00
H1       0.20063    0.40451    0.70897   1.00
H1       0.21093    0.60091    0.70461   1.00
H1       0.29902    0.40052    0.78019   1.00
H1       0.29985    0.59848    0.78743   1.00
C6       0.34248    0.45515    0.80905   1.00
C6       0.33427    0.54119    0.82261   1.00
H2       0.35325    0.43345    0.78845   1.00
H2       0.31703    0.56310    0.83789   1.00
H2       0.36835    0.47286    0.81382   1.00
H2       0.34320    0.52228    0.84646   1.00
C6       0.33000    0.43606    0.84871   1.00
C6       0.37154    0.55942    0.80334   1.00
H2       0.30110    0.42292    0.84561   1.00
H2       0.36348    0.57383    0.77604   1.00
C6       0.35782    0.40459    0.86667   1.00
C6       0.39578    0.58911    0.82820   1.00
H2       0.32633    0.45949    0.87002   1.00
H2       0.39077    0.53546    0.79482   1.00
C6       0.35974    0.36735    0.84100   1.00
C6       0.37250    0.62708    0.83630   1.00
C6       0.39962    0.42074    0.87266   1.00
C6       0.40903    0.57107    0.86747   1.00
C6       0.34159    0.39245    0.90720   1.00
C6       0.43289    0.60054    0.80484   1.00
H2       0.33060    0.35558    0.83569   1.00
H2       0.36217    0.64020    0.80915   1.00
H2       0.37315    0.37330    0.81281   1.00
H2       0.34720    0.62154    0.85471   1.00
H2       0.37701    0.34459    0.85506   1.00
H2       0.39054    0.64863    0.85127   1.00
H2       0.41802    0.39955    0.88773   1.00
H2       0.42821    0.59098    0.88330   1.00
H2       0.41343    0.42725    0.84476   1.00
H2       0.38406    0.56494    0.88620   1.00
H2       0.39902    0.44745    0.88998   1.00
H2       0.42481    0.54385    0.86263   1.00
H2       0.31220    0.38042    0.90456   1.00
H2       0.42515    0.61383    0.77693   1.00
H2       0.35993    0.37025    0.92084   1.00
H2       0.45070    0.62149    0.82093   1.00
H2       0.34027    0.41739    0.92695   1.00
H2       0.45099    0.57502    0.79888   1.00
C4       0.01975    0.24590    0.74751   1.00
C4       -0.02191   0.24576    0.74597   1.00
C3       0.04103    0.22532    0.77672   1.00
C3       -0.04504   0.22183    0.77090   1.00
C3       0.04146    0.26734    0.71904   1.00
C3       -0.04170   0.27026    0.71859   1.00
C2       0.10405    0.24460    0.74953   1.00
C2       -0.10622   0.24686    0.74420   1.00
C3       0.08189    0.22448    0.77764   1.00
C3       -0.08591   0.22246    0.77023   1.00
C3       0.08304    0.26555    0.72087   1.00
C3       -0.08336   0.27020    0.71900   1.00
H1       0.02763    0.21049    0.79864   1.00
H1       -0.03306   0.20276    0.79021   1.00
C5       0.02165    0.28994    0.68991   1.00
C5       -0.01998   0.29378    0.69164   1.00
H1       0.09549    0.20897    0.79937   1.00
H1       -0.10091   0.20461    0.78907   1.00
H1       0.09948    0.28019    0.70098   1.00
H1       -0.09848   0.28743    0.70015   1.00
C6       0.04485    0.30905    0.65752   1.00
C6       -0.04119   0.32261    0.66573   1.00
H2       0.06655    0.28845    0.64675   1.00
H2       -0.06310   0.33789    0.68297   1.00
H2       0.02714    0.31382    0.63165   1.00
H2       -0.02228   0.34646    0.65680   1.00
C6       0.06394    0.34871    0.67000   1.00
C6       -0.05942   0.30334    0.62846   1.00
H2       0.07708    0.34561    0.69890   1.00
H2       -0.07383   0.27604    0.63652   1.00
C6       0.09541    0.36667    0.64218   1.00
C6       -0.08911   0.32820    0.60422   1.00
H2       0.04051    0.37002    0.67367   1.00
H2       -0.03546   0.29482    0.60923   1.00
C6       0.13265    0.34100    0.64026   1.00
C6       -0.12708   0.33630    0.62750   1.00
C6       0.07926    0.37266    0.60038   1.00
C6       -0.07107   0.36747    0.59097   1.00
C6       0.10755    0.40720    0.65841   1.00
C6       -0.10054   0.30484    0.56711   1.00
H2       0.14442    0.33569    0.66940   1.00
H2       -0.14020   0.30915    0.63783   1.00
H2       0.12670    0.31281    0.62685   1.00
H2       -0.12154   0.35471    0.65280   1.00
H2       0.15541    0.35506    0.62299   1.00
H2       -0.14863   0.35127    0.60946   1.00
H2       0.10045    0.38773    0.58198   1.00
H2       -0.09098   0.38330    0.57179   1.00
H2       0.07275    0.34476    0.58657   1.00
H2       -0.06494   0.38620    0.61594   1.00
H2       0.05255    0.38998    0.60098   1.00
H2       -0.04385   0.36263    0.57519   1.00
H2       0.11958    0.40456    0.68780   1.00
H2       -0.11383   0.27693    0.57485   1.00
H2       0.12975    0.42084    0.64007   1.00
H2       -0.12149   0.32093    0.54930   1.00
H2       0.08261    0.42695    0.65973   1.00
H2       -0.07502   0.29888    0.54901   1.00
C4       0.48025    0.24590    0.75249   1.00
C4       0.52191    0.24576    0.75403   1.00
C3       0.45897    0.22532    0.72328   1.00
C3       0.54504    0.22183    0.72910   1.00
C3       0.45854    0.26734    0.78096   1.00
C3       0.54170    0.27026    0.78141   1.00
C2       0.39595    0.24460    0.75047   1.00
C2       0.60622    0.24686    0.75580   1.00
C3       0.41811    0.22448    0.72236   1.00
C3       0.58591    0.22246    0.72977   1.00
C3       0.41696    0.26555    0.77913   1.00
C3       0.58336    0.27020    0.78100   1.00
H1       0.47237    0.21049    0.70136   1.00
H1       0.53306    0.20276    0.70979   1.00
C5       0.47835    0.28994    0.81009   1.00
C5       0.51998    0.29378    0.80836   1.00
H1       0.40451    0.20897    0.70063   1.00
H1       0.60091    0.20461    0.71093   1.00
H1       0.40052    0.28019    0.79902   1.00
H1       0.59848    0.28743    0.79985   1.00
C6       0.45515    0.30905    0.84248   1.00
C6       0.54119    0.32261    0.83427   1.00
H2       0.43345    0.28845    0.85325   1.00
H2       0.56310    0.33789    0.81703   1.00
H2       0.47286    0.31382    0.86835   1.00
H2       0.52228    0.34646    0.84320   1.00
C6       0.43606    0.34871    0.83000   1.00
C6       0.55942    0.30334    0.87154   1.00
H2       0.42292    0.34561    0.80110   1.00
H2       0.57383    0.27604    0.86348   1.00
C6       0.40459    0.36667    0.85782   1.00
C6       0.58911    0.32820    0.89578   1.00
H2       0.45949    0.37002    0.82633   1.00
H2       0.53546    0.29482    0.89077   1.00
C6       0.36735    0.34100    0.85974   1.00
C6       0.62708    0.33630    0.87250   1.00
C6       0.42074    0.37266    0.89962   1.00
C6       0.57107    0.36747    0.90903   1.00
C6       0.39245    0.40720    0.84159   1.00
C6       0.60054    0.30484    0.93289   1.00
H2       0.35558    0.33569    0.83060   1.00
H2       0.64020    0.30915    0.86217   1.00
H2       0.37330    0.31281    0.87315   1.00
H2       0.62154    0.35471    0.84720   1.00
H2       0.34459    0.35506    0.87701   1.00
H2       0.64863    0.35127    0.89054   1.00
H2       0.39955    0.38773    0.91802   1.00
H2       0.59098    0.38330    0.92821   1.00
H2       0.42725    0.34476    0.91343   1.00
H2       0.56494    0.38620    0.88406   1.00
H2       0.44745    0.38998    0.89902   1.00
H2       0.54385    0.36263    0.92481   1.00
H2       0.38042    0.40456    0.81220   1.00
H2       0.61383    0.27693    0.92515   1.00
H2       0.37025    0.42084    0.85993   1.00
H2       0.62149    0.32093    0.95070   1.00
H2       0.41739    0.42695    0.84027   1.00
H2       0.57502    0.29888    0.95099   1.00
C4       0.24751    0.01975    0.74590   1.00
C4       0.24597    -0.02191   0.74576   1.00
C3       0.27672    0.04103    0.72532   1.00
C3       0.27090    -0.04504   0.72183   1.00
C3       0.21904    0.04146    0.76734   1.00
C3       0.21859    -0.04170   0.77026   1.00
C2       0.24953    0.10405    0.74460   1.00
C2       0.24420    -0.10622   0.74686   1.00
C3       0.27764    0.08189    0.72448   1.00
C3       0.27023    -0.08591   0.72246   1.00
C3       0.22087    0.08304    0.76555   1.00
C3       0.21900    -0.08336   0.77020   1.00
H1       0.29864    0.02763    0.71049   1.00
H1       0.29021    -0.03306   0.70276   1.00
C5       0.18991    0.02165    0.78994   1.00
C5       0.19164    -0.01998   0.79378   1.00
H1       0.29937    0.09549    0.70897   1.00
H1       0.28907    -0.10091   0.70461   1.00
H1       0.20098    0.09948    0.78019   1.00
H1       0.20015    -0.09848   0.78743   1.00
C6       0.15752    0.04485    0.80905   1.00
C6       0.16573    -0.04119   0.82261   1.00
H2       0.14675    0.06655    0.78845   1.00
H2       0.18297    -0.06310   0.83789   1.00
H2       0.13165    0.02714    0.81382   1.00
H2       0.15680    -0.02228   0.84646   1.00
C6       0.17000    0.06394    0.84871   1.00
C6       0.12846    -0.05942   0.80334   1.00
H2       0.19890    0.07708    0.84561   1.00
H2       0.13652    -0.07383   0.77604   1.00
C6       0.14218    0.09541    0.86667   1.00
C6       0.10422    -0.08911   0.82820   1.00
H2       0.17367    0.04051    0.87002   1.00
H2       0.10923    -0.03546   0.79482   1.00
C6       0.14026    0.13265    0.84100   1.00
C6       0.12750    -0.12708   0.83630   1.00
C6       0.10038    0.07926    0.87266   1.00
C6       0.09097    -0.07107   0.86747   1.00
C6       0.15841    0.10755    0.90720   1.00
C6       0.06711    -0.10054   0.80484   1.00
H2       0.16940    0.14442    0.83569   1.00
H2       0.13783    -0.14020   0.80915   1.00
H2       0.12685    0.12670    0.81281   1.00
H2       0.15280    -0.12154   0.85471   1.00
H2       0.12299    0.15541    0.85506   1.00
H2       0.10946    -0.14863   0.85127   1.00
H2       0.08198    0.10045    0.88773   1.00
H2       0.07179    -0.09098   0.88330   1.00
H2       0.08657    0.07275    0.84476   1.00
H2       0.11594    -0.06494   0.88620   1.00
H2       0.10098    0.05255    0.88998   1.00
H2       0.07519    -0.04385   0.86263   1.00
H2       0.18780    0.11958    0.90456   1.00
H2       0.07485    -0.11383   0.77693   1.00
H2       0.14007    0.12975    0.92084   1.00
H2       0.04930    -0.12149   0.82093   1.00
H2       0.15973    0.08261    0.92695   1.00
H2       0.04901    -0.07502   0.79888   1.00
C4       0.24590    0.24751    0.51975   1.00
C4       0.24576    0.24597    0.47809   1.00
C3       0.22532    0.27672    0.54103   1.00
C3       0.22183    0.27090    0.45496   1.00
C3       0.26734    0.21904    0.54146   1.00
C3       0.27026    0.21859    0.45830   1.00
C2       0.24460    0.24953    0.60405   1.00
C2       0.24686    0.24420    0.39378   1.00
C3       0.22448    0.27764    0.58189   1.00
C3       0.22246    0.27023    0.41409   1.00
C3       0.26555    0.22087    0.58304   1.00
C3       0.27020    0.21900    0.41664   1.00
H1       0.21049    0.29864    0.52763   1.00
H1       0.20276    0.29021    0.46694   1.00
C5       0.28994    0.18991    0.52165   1.00
C5       0.29378    0.19164    0.48002   1.00
H1       0.20897    0.29937    0.59549   1.00
H1       0.20461    0.28907    0.39909   1.00
H1       0.28019    0.20098    0.59948   1.00
H1       0.28743    0.20015    0.40152   1.00
C6       0.30905    0.15752    0.54485   1.00
C6       0.32261    0.16573    0.45881   1.00
H2       0.28845    0.14675    0.56655   1.00
H2       0.33789    0.18297    0.43690   1.00
H2       0.31382    0.13165    0.52714   1.00
H2       0.34646    0.15680    0.47772   1.00
C6       0.34871    0.17000    0.56394   1.00
C6       0.30334    0.12846    0.44058   1.00
H2       0.34561    0.19890    0.57708   1.00
H2       0.27604    0.13652    0.42617   1.00
C6       0.36667    0.14218    0.59541   1.00
C6       0.32820    0.10422    0.41089   1.00
H2       0.37002    0.17367    0.54051   1.00
H2       0.29482    0.10923    0.46454   1.00
C6       0.34100    0.14026    0.63265   1.00
C6       0.33630    0.12750    0.37292   1.00
C6       0.37266    0.10038    0.57926   1.00
C6       0.36747    0.09097    0.42893   1.00
C6       0.40720    0.15841    0.60755   1.00
C6       0.30484    0.06711    0.39946   1.00
H2       0.33569    0.16940    0.64442   1.00
H2       0.30915    0.13783    0.35980   1.00
H2       0.31281    0.12685    0.62670   1.00
H2       0.35471    0.15280    0.37846   1.00
H2       0.35506    0.12299    0.65541   1.00
H2       0.35127    0.10946    0.35137   1.00
H2       0.38773    0.08198    0.60045   1.00
H2       0.38330    0.07179    0.40902   1.00
H2       0.34476    0.08657    0.57275   1.00
H2       0.38620    0.11594    0.43506   1.00
H2       0.38998    0.10098    0.55255   1.00
H2       0.36263    0.07519    0.45615   1.00
H2       0.40456    0.18780    0.61958   1.00
H2       0.27693    0.07485    0.38617   1.00
H2       0.42084    0.14007    0.62975   1.00
H2       0.32093    0.04930    0.37851   1.00
H2       0.42695    0.15973    0.58261   1.00
H2       0.29888    0.04901    0.42498   1.00
C4       0.24590    0.75249    0.48025   1.00
C4       0.24576    0.75403    0.52191   1.00
C3       0.22532    0.72328    0.45897   1.00
C3       0.22183    0.72910    0.54504   1.00
C3       0.26734    0.78096    0.45854   1.00
C3       0.27026    0.78141    0.54170   1.00
C2       0.24460    0.75047    0.39595   1.00
C2       0.24686    0.75580    0.60622   1.00
C3       0.22448    0.72236    0.41811   1.00
C3       0.22246    0.72977    0.58591   1.00
C3       0.26555    0.77913    0.41696   1.00
C3       0.27020    0.78100    0.58336   1.00
H1       0.21049    0.70136    0.47237   1.00
H1       0.20276    0.70979    0.53306   1.00
C5       0.28994    0.81009    0.47835   1.00
C5       0.29378    0.80836    0.51998   1.00
H1       0.20897    0.70063    0.40451   1.00
H1       0.20461    0.71093    0.60091   1.00
H1       0.28019    0.79902    0.40052   1.00
H1       0.28743    0.79985    0.59848   1.00
C6       0.30905    0.84248    0.45515   1.00
C6       0.32261    0.83427    0.54119   1.00
H2       0.28845    0.85325    0.43345   1.00
H2       0.33789    0.81703    0.56310   1.00
H2       0.31382    0.86835    0.47286   1.00
H2       0.34646    0.84320    0.52228   1.00
C6       0.34871    0.83000    0.43606   1.00
C6       0.30334    0.87154    0.55942   1.00
H2       0.34561    0.80110    0.42292   1.00
H2       0.27604    0.86348    0.57383   1.00
C6       0.36667    0.85782    0.40459   1.00
C6       0.32820    0.89578    0.58911   1.00
H2       0.37002    0.82633    0.45949   1.00
H2       0.29482    0.89077    0.53546   1.00
C6       0.34100    0.85974    0.36735   1.00
C6       0.33630    0.87250    0.62708   1.00
C6       0.37266    0.89962    0.42074   1.00
C6       0.36747    0.90903    0.57107   1.00
C6       0.40720    0.84159    0.39245   1.00
C6       0.30484    0.93289    0.60054   1.00
H2       0.33569    0.83060    0.35558   1.00
H2       0.30915    0.86217    0.64020   1.00
H2       0.31281    0.87315    0.37330   1.00
H2       0.35471    0.84720    0.62154   1.00
H2       0.35506    0.87701    0.34459   1.00
H2       0.35127    0.89054    0.64863   1.00
H2       0.38773    0.91802    0.39955   1.00
H2       0.38330    0.92821    0.59098   1.00
H2       0.34476    0.91343    0.42725   1.00
H2       0.38620    0.88406    0.56494   1.00
H2       0.38998    0.89902    0.44745   1.00
H2       0.36263    0.92481    0.54385   1.00
H2       0.40456    0.81220    0.38042   1.00
H2       0.27693    0.92515    0.61383   1.00
H2       0.42084    0.85993    0.37025   1.00
H2       0.32093    0.95070    0.62149   1.00
H2       0.42695    0.84027    0.41739   1.00
H2       0.29888    0.95099    0.57502   1.00
C4       0.25249    0.98025    0.24590   1.00
C4       0.25403    1.02191    0.24576   1.00
C3       0.22328    0.95897    0.22532   1.00
C3       0.22910    1.04504    0.22183   1.00
C3       0.28096    0.95854    0.26734   1.00
C3       0.28141    1.04170    0.27026   1.00
C2       0.25047    0.89595    0.24460   1.00
C2       0.25580    1.10622    0.24686   1.00
C3       0.22236    0.91811    0.22448   1.00
C3       0.22977    1.08591    0.22246   1.00
C3       0.27913    0.91696    0.26555   1.00
C3       0.28100    1.08336    0.27020   1.00
H1       0.20136    0.97237    0.21049   1.00
H1       0.20979    1.03306    0.20276   1.00
C5       0.31009    0.97835    0.28994   1.00
C5       0.30836    1.01998    0.29378   1.00
H1       0.20063    0.90451    0.20897   1.00
H1       0.21093    1.10091    0.20461   1.00
H1       0.29902    0.90052    0.28019   1.00
H1       0.29985    1.09848    0.28743   1.00
C6       0.34248    0.95515    0.30905   1.00
C6       0.33427    1.04119    0.32261   1.00
H2       0.35325    0.93345    0.28845   1.00
H2       0.31703    1.06310    0.33789   1.00
H2       0.36835    0.97286    0.31382   1.00
H2       0.34320    1.02228    0.34646   1.00
C6       0.33000    0.93606    0.34871   1.00
C6       0.37154    1.05942    0.30334   1.00
H2       0.30110    0.92292    0.34561   1.00
H2       0.36348    1.07383    0.27604   1.00
C6       0.35782    0.90459    0.36667   1.00
C6       0.39578    1.08911    0.32820   1.00
H2       0.32633    0.95949    0.37002   1.00
H2       0.39077    1.03546    0.29482   1.00
C6       0.35974    0.86735    0.34100   1.00
C6       0.37250    1.12708    0.33630   1.00
C6       0.39962    0.92074    0.37266   1.00
C6       0.40903    1.07107    0.36747   1.00
C6       0.34159    0.89245    0.40720   1.00
C6       0.43289    1.10054    0.30484   1.00
H2       0.33060    0.85558    0.33569   1.00
H2       0.36217    1.14020    0.30915   1.00
H2       0.37315    0.87330    0.31281   1.00
H2       0.34720    1.12154    0.35471   1.00
H2       0.37701    0.84459    0.35506   1.00
H2       0.39054    1.14863    0.35127   1.00
H2       0.41802    0.89955    0.38773   1.00
H2       0.42821    1.09098    0.38330   1.00
H2       0.41343    0.92725    0.34476   1.00
H2       0.38406    1.06494    0.38620   1.00
H2       0.39902    0.94745    0.38998   1.00
H2       0.42481    1.04385    0.36263   1.00
H2       0.31220    0.88042    0.40456   1.00
H2       0.42515    1.11383    0.27693   1.00
H2       0.35993    0.87025    0.42084   1.00
H2       0.45070    1.12149    0.32093   1.00
H2       0.34027    0.91739    0.42695   1.00
H2       0.45099    1.07502    0.29888   1.00
C4       0.01975    0.74590    0.24751   1.00
C4       -0.02191   0.74576    0.24597   1.00
C3       0.04103    0.72532    0.27672   1.00
C3       -0.04504   0.72183    0.27090   1.00
C3       0.04146    0.76734    0.21904   1.00
C3       -0.04170   0.77026    0.21859   1.00
C2       0.10405    0.74460    0.24953   1.00
C2       -0.10622   0.74686    0.24420   1.00
C3       0.08189    0.72448    0.27764   1.00
C3       -0.08591   0.72246    0.27023   1.00
C3       0.08304    0.76555    0.22087   1.00
C3       -0.08336   0.77020    0.21900   1.00
H1       0.02763    0.71049    0.29864   1.00
H1       -0.03306   0.70276    0.29021   1.00
C5       0.02165    0.78994    0.18991   1.00
C5       -0.01998   0.79378    0.19164   1.00
H1       0.09549    0.70897    0.29937   1.00
H1       -0.10091   0.70461    0.28907   1.00
H1       0.09948    0.78019    0.20098   1.00
H1       -0.09848   0.78743    0.20015   1.00
C6       0.04485    0.80905    0.15752   1.00
C6       -0.04119   0.82261    0.16573   1.00
H2       0.06655    0.78845    0.14675   1.00
H2       -0.06310   0.83789    0.18297   1.00
H2       0.02714    0.81382    0.13165   1.00
H2       -0.02228   0.84646    0.15680   1.00
C6       0.06394    0.84871    0.17000   1.00
C6       -0.05942   0.80334    0.12846   1.00
H2       0.07708    0.84561    0.19890   1.00
H2       -0.07383   0.77604    0.13652   1.00
C6       0.09541    0.86667    0.14218   1.00
C6       -0.08911   0.82820    0.10422   1.00
H2       0.04051    0.87002    0.17367   1.00
H2       -0.03546   0.79482    0.10923   1.00
C6       0.13265    0.84100    0.14026   1.00
C6       -0.12708   0.83630    0.12750   1.00
C6       0.07926    0.87266    0.10038   1.00
C6       -0.07107   0.86747    0.09097   1.00
C6       0.10755    0.90720    0.15841   1.00
C6       -0.10054   0.80484    0.06711   1.00
H2       0.14442    0.83569    0.16940   1.00
H2       -0.14020   0.80915    0.13783   1.00
H2       0.12670    0.81281    0.12685   1.00
H2       -0.12154   0.85471    0.15280   1.00
H2       0.15541    0.85506    0.12299   1.00
H2       -0.14863   0.85127    0.10946   1.00
H2       0.10045    0.88773    0.08198   1.00
H2       -0.09098   0.88330    0.07179   1.00
H2       0.07275    0.84476    0.08657   1.00
H2       -0.06494   0.88620    0.11594   1.00
H2       0.05255    0.88998    0.10098   1.00
H2       -0.04385   0.86263    0.07519   1.00
H2       0.11958    0.90456    0.18780   1.00
H2       -0.11383   0.77693    0.07485   1.00
H2       0.12975    0.92084    0.14007   1.00
H2       -0.12149   0.82093    0.04930   1.00
H2       0.08261    0.92695    0.15973   1.00
H2       -0.07502   0.79888    0.04901   1.00
C4       0.48025    0.74590    0.25249   1.00
C4       0.52191    0.74576    0.25403   1.00
C3       0.45897    0.72532    0.22328   1.00
C3       0.54504    0.72183    0.22910   1.00
C3       0.45854    0.76734    0.28096   1.00
C3       0.54170    0.77026    0.28141   1.00
C2       0.39595    0.74460    0.25047   1.00
C2       0.60622    0.74686    0.25580   1.00
C3       0.41811    0.72448    0.22236   1.00
C3       0.58591    0.72246    0.22977   1.00
C3       0.41696    0.76555    0.27913   1.00
C3       0.58336    0.77020    0.28100   1.00
H1       0.47237    0.71049    0.20136   1.00
H1       0.53306    0.70276    0.20979   1.00
C5       0.47835    0.78994    0.31009   1.00
C5       0.51998    0.79378    0.30836   1.00
H1       0.40451    0.70897    0.20063   1.00
H1       0.60091    0.70461    0.21093   1.00
H1       0.40052    0.78019    0.29902   1.00
H1       0.59848    0.78743    0.29985   1.00
C6       0.45515    0.80905    0.34248   1.00
C6       0.54119    0.82261    0.33427   1.00
H2       0.43345    0.78845    0.35325   1.00
H2       0.56310    0.83789    0.31703   1.00
H2       0.47286    0.81382    0.36835   1.00
H2       0.52228    0.84646    0.34320   1.00
C6       0.43606    0.84871    0.33000   1.00
C6       0.55942    0.80334    0.37154   1.00
H2       0.42292    0.84561    0.30110   1.00
H2       0.57383    0.77604    0.36348   1.00
C6       0.40459    0.86667    0.35782   1.00
C6       0.58911    0.82820    0.39578   1.00
H2       0.45949    0.87002    0.32633   1.00
H2       0.53546    0.79482    0.39077   1.00
C6       0.36735    0.84100    0.35974   1.00
C6       0.62708    0.83630    0.37250   1.00
C6       0.42074    0.87266    0.39962   1.00
C6       0.57107    0.86747    0.40903   1.00
C6       0.39245    0.90720    0.34159   1.00
C6       0.60054    0.80484    0.43289   1.00
H2       0.35558    0.83569    0.33060   1.00
H2       0.64020    0.80915    0.36217   1.00
H2       0.37330    0.81281    0.37315   1.00
H2       0.62154    0.85471    0.34720   1.00
H2       0.34459    0.85506    0.37701   1.00
H2       0.64863    0.85127    0.39054   1.00
H2       0.39955    0.88773    0.41802   1.00
H2       0.59098    0.88330    0.42821   1.00
H2       0.42725    0.84476    0.41343   1.00
H2       0.56494    0.88620    0.38406   1.00
H2       0.44745    0.88998    0.39902   1.00
H2       0.54385    0.86263    0.42481   1.00
H2       0.38042    0.90456    0.31220   1.00
H2       0.61383    0.77693    0.42515   1.00
H2       0.37025    0.92084    0.35993   1.00
H2       0.62149    0.82093    0.45070   1.00
H2       0.41739    0.92695    0.34027   1.00
H2       0.57502    0.79888    0.45099   1.00
C4       0.24751    0.51975    0.24590   1.00
C4       0.24597    0.47809    0.24576   1.00
C3       0.27672    0.54103    0.22532   1.00
C3       0.27090    0.45496    0.22183   1.00
C3       0.21904    0.54146    0.26734   1.00
C3       0.21859    0.45830    0.27026   1.00
C2       0.24953    0.60405    0.24460   1.00
C2       0.24420    0.39378    0.24686   1.00
C3       0.27764    0.58189    0.22448   1.00
C3       0.27023    0.41409    0.22246   1.00
C3       0.22087    0.58304    0.26555   1.00
C3       0.21900    0.41664    0.27020   1.00
H1       0.29864    0.52763    0.21049   1.00
H1       0.29021    0.46694    0.20276   1.00
C5       0.18991    0.52165    0.28994   1.00
C5       0.19164    0.48002    0.29378   1.00
H1       0.29937    0.59549    0.20897   1.00
H1       0.28907    0.39909    0.20461   1.00
H1       0.20098    0.59948    0.28019   1.00
H1       0.20015    0.40152    0.28743   1.00
C6       0.15752    0.54485    0.30905   1.00
C6       0.16573    0.45881    0.32261   1.00
H2       0.14675    0.56655    0.28845   1.00
H2       0.18297    0.43690    0.33789   1.00
H2       0.13165    0.52714    0.31382   1.00
H2       0.15680    0.47772    0.34646   1.00
C6       0.17000    0.56394    0.34871   1.00
C6       0.12846    0.44058    0.30334   1.00
H2       0.19890    0.57708    0.34561   1.00
H2       0.13652    0.42617    0.27604   1.00
C6       0.14218    0.59541    0.36667   1.00
C6       0.10422    0.41089    0.32820   1.00
H2       0.17367    0.54051    0.37002   1.00
H2       0.10923    0.46454    0.29482   1.00
C6       0.14026    0.63265    0.34100   1.00
C6       0.12750    0.37292    0.33630   1.00
C6       0.10038    0.57926    0.37266   1.00
C6       0.09097    0.42893    0.36747   1.00
C6       0.15841    0.60755    0.40720   1.00
C6       0.06711    0.39946    0.30484   1.00
H2       0.16940    0.64442    0.33569   1.00
H2       0.13783    0.35980    0.30915   1.00
H2       0.12685    0.62670    0.31281   1.00
H2       0.15280    0.37846    0.35471   1.00
H2       0.12299    0.65541    0.35506   1.00
H2       0.10946    0.35137    0.35127   1.00
H2       0.08198    0.60045    0.38773   1.00
H2       0.07179    0.40902    0.38330   1.00
H2       0.08657    0.57275    0.34476   1.00
H2       0.11594    0.43506    0.38620   1.00
H2       0.10098    0.55255    0.38998   1.00
H2       0.07519    0.45615    0.36263   1.00
H2       0.18780    0.61958    0.40456   1.00
H2       0.07485    0.38617    0.27693   1.00
H2       0.14007    0.62975    0.42084   1.00
H2       0.04930    0.37851    0.32093   1.00
H2       0.15973    0.58261    0.42695   1.00
H2       0.04901    0.42498    0.29888   1.00
C4       0.24590    0.74751    0.01975   1.00
C4       0.24576    0.74597    -0.02191   1.00
C3       0.22532    0.77672    0.04103   1.00
C3       0.22183    0.77090    -0.04504   1.00
C3       0.26734    0.71904    0.04146   1.00
C3       0.27026    0.71859    -0.04170   1.00
C2       0.24460    0.74953    0.10405   1.00
C2       0.24686    0.74420    -0.10622   1.00
C3       0.22448    0.77764    0.08189   1.00
C3       0.22246    0.77023    -0.08591   1.00
C3       0.26555    0.72087    0.08304   1.00
C3       0.27020    0.71900    -0.08336   1.00
H1       0.21049    0.79864    0.02763   1.00
H1       0.20276    0.79021    -0.03306   1.00
C5       0.28994    0.68991    0.02165   1.00
C5       0.29378    0.69164    -0.01998   1.00
H1       0.20897    0.79937    0.09549   1.00
H1       0.20461    0.78907    -0.10091   1.00
H1       0.28019    0.70098    0.09948   1.00
H1       0.28743    0.70015    -0.09848   1.00
C6       0.30905    0.65752    0.04485   1.00
C6       0.32261    0.66573    -0.04119   1.00
H2       0.28845    0.64675    0.06655   1.00
H2       0.33789    0.68297    -0.06310   1.00
H2       0.31382    0.63165    0.02714   1.00
H2       0.34646    0.65680    -0.02228   1.00
C6       0.34871    0.67000    0.06394   1.00
C6       0.30334    0.62846    -0.05942   1.00
H2       0.34561    0.69890    0.07708   1.00
H2       0.27604    0.63652    -0.07383   1.00
C6       0.36667    0.64218    0.09541   1.00
C6       0.32820    0.60422    -0.08911   1.00
H2       0.37002    0.67367    0.04051   1.00
H2       0.29482    0.60923    -0.03546   1.00
C6       0.34100    0.64026    0.13265   1.00
C6       0.33630    0.62750    -0.12708   1.00
C6       0.37266    0.60038    0.07926   1.00
C6       0.36747    0.59097    -0.07107   1.00
C6       0.40720    0.65841    0.10755   1.00
C6       0.30484    0.56711    -0.10054   1.00
H2       0.33569    0.66940    0.14442   1.00
H2       0.30915    0.63783    -0.14020   1.00
H2       0.31281    0.62685    0.12670   1.00
H2       0.35471    0.65280    -0.12154   1.00
H2       0.35506    0.62299    0.15541   1.00
H2       0.35127    0.60946    -0.14863   1.00
H2       0.38773    0.58198    0.10045   1.00
H2       0.38330    0.57179    -0.09098   1.00
H2       0.34476    0.58657    0.07275   1.00
H2       0.38620    0.61594    -0.06494   1.00
H2       0.38998    0.60098    0.05255   1.00
H2       0.36263    0.57519    -0.04385   1.00
H2       0.40456    0.68780    0.11958   1.00
H2       0.27693    0.57485    -0.11383   1.00
H2       0.42084    0.64007    0.12975   1.00
H2       0.32093    0.54930    -0.12149   1.00
H2       0.42695    0.65973    0.08261   1.00
H2       0.29888    0.54901    -0.07502   1.00
C4       0.74590    0.25249    0.48025   1.00
C4       0.74576    0.25403    0.52191   1.00
C3       0.72532    0.22328    0.45897   1.00
C3       0.72183    0.22910    0.54504   1.00
C3       0.76734    0.28096    0.45854   1.00
C3       0.77026    0.28141    0.54170   1.00
C2       0.74460    0.25047    0.39595   1.00
C2       0.74686    0.25580    0.60622   1.00
C3       0.72448    0.22236    0.41811   1.00
C3       0.72246    0.22977    0.58591   1.00
C3       0.76555    0.27913    0.41696   1.00
C3       0.77020    0.28100    0.58336   1.00
H1       0.71049    0.20136    0.47237   1.00
H1       0.70276    0.20979    0.53306   1.00
C5       0.78994    0.31009    0.47835   1.00
C5       0.79378    0.30836    0.51998   1.00
H1       0.70897    0.20063    0.40451   1.00
H1       0.70461    0.21093    0.60091   1.00
H1       0.78019    0.29902    0.40052   1.00
H1       0.78743    0.29985    0.59848   1.00
C6       0.80905    0.34248    0.45515   1.00
C6       0.82261    0.33427    0.54119   1.00
H2       0.78845    0.35325    0.43345   1.00
H2       0.83789    0.31703    0.56310   1.00
H2       0.81382    0.36835    0.47286   1.00
H2       0.84646    0.34320    0.52228   1.00
C6       0.84871    0.33000    0.43606   1.00
C6       0.80334    0.37154    0.55942   1.00
H2       0.84561    0.30110    0.42292   1.00
H2       0.77604    0.36348    0.57383   1.00
C6       0.86667    0.35782    0.40459   1.00
C6       0.82820    0.39578    0.58911   1.00
H2       0.87002    0.32633    0.45949   1.00
H2       0.79482    0.39077    0.53546   1.00
C6       0.84100    0.35974    0.36735   1.00
C6       0.83630    0.37250    0.62708   1.00
C6       0.87266    0.39962    0.42074   1.00
C6       0.86747    0.40903    0.57107   1.00
C6       0.90720    0.34159    0.39245   1.00
C6       0.80484    0.43289    0.60054   1.00
H2       0.83569    0.33060    0.35558   1.00
H2       0.80915    0.36217    0.64020   1.00
H2       0.81281    0.37315    0.37330   1.00
H2       0.85471    0.34720    0.62154   1.00
H2       0.85506    0.37701    0.34459   1.00
H2       0.85127    0.39054    0.64863   1.00
H2       0.88773    0.41802    0.39955   1.00
H2       0.88330    0.42821    0.59098   1.00
H2       0.84476    0.41343    0.42725   1.00
H2       0.88620    0.38406    0.56494   1.00
H2       0.88998    0.39902    0.44745   1.00
H2       0.86263    0.42481    0.54385   1.00
H2       0.90456    0.31220    0.38042   1.00
H2       0.77693    0.42515    0.61383   1.00
H2       0.92084    0.35993    0.37025   1.00
H2       0.82093    0.45070    0.62149   1.00
H2       0.92695    0.34027    0.41739   1.00
H2       0.79888    0.45099    0.57502   1.00
C4       0.75249    0.48025    0.24590   1.00
C4       0.75403    0.52191    0.24576   1.00
C3       0.72328    0.45897    0.22532   1.00
C3       0.72910    0.54504    0.22183   1.00
C3       0.78096    0.45854    0.26734   1.00
C3       0.78141    0.54170    0.27026   1.00
C2       0.75047    0.39595    0.24460   1.00
C2       0.75580    0.60622    0.24686   1.00
C3       0.72236    0.41811    0.22448   1.00
C3       0.72977    0.58591    0.22246   1.00
C3       0.77913    0.41696    0.26555   1.00
C3       0.78100    0.58336    0.27020   1.00
H1       0.70136    0.47237    0.21049   1.00
H1       0.70979    0.53306    0.20276   1.00
C5       0.81009    0.47835    0.28994   1.00
C5       0.80836    0.51998    0.29378   1.00
H1       0.70063    0.40451    0.20897   1.00
H1       0.71093    0.60091    0.20461   1.00
H1       0.79902    0.40052    0.28019   1.00
H1       0.79985    0.59848    0.28743   1.00
C6       0.84248    0.45515    0.30905   1.00
C6       0.83427    0.54119    0.32261   1.00
H2       0.85325    0.43345    0.28845   1.00
H2       0.81703    0.56310    0.33789   1.00
H2       0.86835    0.47286    0.31382   1.00
H2       0.84320    0.52228    0.34646   1.00
C6       0.83000    0.43606    0.34871   1.00
C6       0.87154    0.55942    0.30334   1.00
H2       0.80110    0.42292    0.34561   1.00
H2       0.86348    0.57383    0.27604   1.00
C6       0.85782    0.40459    0.36667   1.00
C6       0.89578    0.58911    0.32820   1.00
H2       0.82633    0.45949    0.37002   1.00
H2       0.89077    0.53546    0.29482   1.00
C6       0.85974    0.36735    0.34100   1.00
C6       0.87250    0.62708    0.33630   1.00
C6       0.89962    0.42074    0.37266   1.00
C6       0.90903    0.57107    0.36747   1.00
C6       0.84159    0.39245    0.40720   1.00
C6       0.93289    0.60054    0.30484   1.00
H2       0.83060    0.35558    0.33569   1.00
H2       0.86217    0.64020    0.30915   1.00
H2       0.87315    0.37330    0.31281   1.00
H2       0.84720    0.62154    0.35471   1.00
H2       0.87701    0.34459    0.35506   1.00
H2       0.89054    0.64863    0.35127   1.00
H2       0.91802    0.39955    0.38773   1.00
H2       0.92821    0.59098    0.38330   1.00
H2       0.91343    0.42725    0.34476   1.00
H2       0.88406    0.56494    0.38620   1.00
H2       0.89902    0.44745    0.38998   1.00
H2       0.92481    0.54385    0.36263   1.00
H2       0.81220    0.38042    0.40456   1.00
H2       0.92515    0.61383    0.27693   1.00
H2       0.85993    0.37025    0.42084   1.00
H2       0.95070    0.62149    0.32093   1.00
H2       0.84027    0.41739    0.42695   1.00
H2       0.95099    0.57502    0.29888   1.00
C4       0.51975    0.24590    0.24751   1.00
C4       0.47809    0.24576    0.24597   1.00
C3       0.54103    0.22532    0.27672   1.00
C3       0.45496    0.22183    0.27090   1.00
C3       0.54146    0.26734    0.21904   1.00
C3       0.45830    0.27026    0.21859   1.00
C2       0.60405    0.24460    0.24953   1.00
C2       0.39378    0.24686    0.24420   1.00
C3       0.58189    0.22448    0.27764   1.00
C3       0.41409    0.22246    0.27023   1.00
C3       0.58304    0.26555    0.22087   1.00
C3       0.41664    0.27020    0.21900   1.00
H1       0.52763    0.21049    0.29864   1.00
H1       0.46694    0.20276    0.29021   1.00
C5       0.52165    0.28994    0.18991   1.00
C5       0.48002    0.29378    0.19164   1.00
H1       0.59549    0.20897    0.29937   1.00
H1       0.39909    0.20461    0.28907   1.00
H1       0.59948    0.28019    0.20098   1.00
H1       0.40152    0.28743    0.20015   1.00
C6       0.54485    0.30905    0.15752   1.00
C6       0.45881    0.32261    0.16573   1.00
H2       0.56655    0.28845    0.14675   1.00
H2       0.43690    0.33789    0.18297   1.00
H2       0.52714    0.31382    0.13165   1.00
H2       0.47772    0.34646    0.15680   1.00
C6       0.56394    0.34871    0.17000   1.00
C6       0.44058    0.30334    0.12846   1.00
H2       0.57708    0.34561    0.19890   1.00
H2       0.42617    0.27604    0.13652   1.00
C6       0.59541    0.36667    0.14218   1.00
C6       0.41089    0.32820    0.10422   1.00
H2       0.54051    0.37002    0.17367   1.00
H2       0.46454    0.29482    0.10923   1.00
C6       0.63265    0.34100    0.14026   1.00
C6       0.37292    0.33630    0.12750   1.00
C6       0.57926    0.37266    0.10038   1.00
C6       0.42893    0.36747    0.09097   1.00
C6       0.60755    0.40720    0.15841   1.00
C6       0.39946    0.30484    0.06711   1.00
H2       0.64442    0.33569    0.16940   1.00
H2       0.35980    0.30915    0.13783   1.00
H2       0.62670    0.31281    0.12685   1.00
H2       0.37846    0.35471    0.15280   1.00
H2       0.65541    0.35506    0.12299   1.00
H2       0.35137    0.35127    0.10946   1.00
H2       0.60045    0.38773    0.08198   1.00
H2       0.40902    0.38330    0.07179   1.00
H2       0.57275    0.34476    0.08657   1.00
H2       0.43506    0.38620    0.11594   1.00
H2       0.55255    0.38998    0.10098   1.00
H2       0.45615    0.36263    0.07519   1.00
H2       0.61958    0.40456    0.18780   1.00
H2       0.38617    0.27693    0.07485   1.00
H2       0.62975    0.42084    0.14007   1.00
H2       0.37851    0.32093    0.04930   1.00
H2       0.58261    0.42695    0.15973   1.00
H2       0.42498    0.29888    0.04901   1.00
C4       0.98025    0.24590    0.25249   1.00
C4       1.02191    0.24576    0.25403   1.00
C3       0.95897    0.22532    0.22328   1.00
C3       1.04504    0.22183    0.22910   1.00
C3       0.95854    0.26734    0.28096   1.00
C3       1.04170    0.27026    0.28141   1.00
C2       0.89595    0.24460    0.25047   1.00
C2       1.10622    0.24686    0.25580   1.00
C3       0.91811    0.22448    0.22236   1.00
C3       1.08591    0.22246    0.22977   1.00
C3       0.91696    0.26555    0.27913   1.00
C3       1.08336    0.27020    0.28100   1.00
H1       0.97237    0.21049    0.20136   1.00
H1       1.03306    0.20276    0.20979   1.00
C5       0.97835    0.28994    0.31009   1.00
C5       1.01998    0.29378    0.30836   1.00
H1       0.90451    0.20897    0.20063   1.00
H1       1.10091    0.20461    0.21093   1.00
H1       0.90052    0.28019    0.29902   1.00
H1       1.09848    0.28743    0.29985   1.00
C6       0.95515    0.30905    0.34248   1.00
C6       1.04119    0.32261    0.33427   1.00
H2       0.93345    0.28845    0.35325   1.00
H2       1.06310    0.33789    0.31703   1.00
H2       0.97286    0.31382    0.36835   1.00
H2       1.02228    0.34646    0.34320   1.00
C6       0.93606    0.34871    0.33000   1.00
C6       1.05942    0.30334    0.37154   1.00
H2       0.92292    0.34561    0.30110   1.00
H2       1.07383    0.27604    0.36348   1.00
C6       0.90459    0.36667    0.35782   1.00
C6       1.08911    0.32820    0.39578   1.00
H2       0.95949    0.37002    0.32633   1.00
H2       1.03546    0.29482    0.39077   1.00
C6       0.86735    0.34100    0.35974   1.00
C6       1.12708    0.33630    0.37250   1.00
C6       0.92074    0.37266    0.39962   1.00
C6       1.07107    0.36747    0.40903   1.00
C6       0.89245    0.40720    0.34159   1.00
C6       1.10054    0.30484    0.43289   1.00
H2       0.85558    0.33569    0.33060   1.00
H2       1.14020    0.30915    0.36217   1.00
H2       0.87330    0.31281    0.37315   1.00
H2       1.12154    0.35471    0.34720   1.00
H2       0.84459    0.35506    0.37701   1.00
H2       1.14863    0.35127    0.39054   1.00
H2       0.89955    0.38773    0.41802   1.00
H2       1.09098    0.38330    0.42821   1.00
H2       0.92725    0.34476    0.41343   1.00
H2       1.06494    0.38620    0.38406   1.00
H2       0.94745    0.38998    0.39902   1.00
H2       1.04385    0.36263    0.42481   1.00
H2       0.88042    0.40456    0.31220   1.00
H2       1.11383    0.27693    0.42515   1.00
H2       0.87025    0.42084    0.35993   1.00
H2       1.12149    0.32093    0.45070   1.00
H2       0.91739    0.42695    0.34027   1.00
H2       1.07502    0.29888    0.45099   1.00
C4       0.74751    0.01975    0.24590   1.00
C4       0.74597    -0.02191   0.24576   1.00
C3       0.77672    0.04103    0.22532   1.00
C3       0.77090    -0.04504   0.22183   1.00
C3       0.71904    0.04146    0.26734   1.00
C3       0.71859    -0.04170   0.27026   1.00
C2       0.74953    0.10405    0.24460   1.00
C2       0.74420    -0.10622   0.24686   1.00
C3       0.77764    0.08189    0.22448   1.00
C3       0.77023    -0.08591   0.22246   1.00
C3       0.72087    0.08304    0.26555   1.00
C3       0.71900    -0.08336   0.27020   1.00
H1       0.79864    0.02763    0.21049   1.00
H1       0.79021    -0.03306   0.20276   1.00
C5       0.68991    0.02165    0.28994   1.00
C5       0.69164    -0.01998   0.29378   1.00
H1       0.79937    0.09549    0.20897   1.00
H1       0.78907    -0.10091   0.20461   1.00
H1       0.70098    0.09948    0.28019   1.00
H1       0.70015    -0.09848   0.28743   1.00
C6       0.65752    0.04485    0.30905   1.00
C6       0.66573    -0.04119   0.32261   1.00
H2       0.64675    0.06655    0.28845   1.00
H2       0.68297    -0.06310   0.33789   1.00
H2       0.63165    0.02714    0.31382   1.00
H2       0.65680    -0.02228   0.34646   1.00
C6       0.67000    0.06394    0.34871   1.00
C6       0.62846    -0.05942   0.30334   1.00
H2       0.69890    0.07708    0.34561   1.00
H2       0.63652    -0.07383   0.27604   1.00
C6       0.64218    0.09541    0.36667   1.00
C6       0.60422    -0.08911   0.32820   1.00
H2       0.67367    0.04051    0.37002   1.00
H2       0.60923    -0.03546   0.29482   1.00
C6       0.64026    0.13265    0.34100   1.00
C6       0.62750    -0.12708   0.33630   1.00
C6       0.60038    0.07926    0.37266   1.00
C6       0.59097    -0.07107   0.36747   1.00
C6       0.65841    0.10755    0.40720   1.00
C6       0.56711    -0.10054   0.30484   1.00
H2       0.66940    0.14442    0.33569   1.00
H2       0.63783    -0.14020   0.30915   1.00
H2       0.62685    0.12670    0.31281   1.00
H2       0.65280    -0.12154   0.35471   1.00
H2       0.62299    0.15541    0.35506   1.00
H2       0.60946    -0.14863   0.35127   1.00
H2       0.58198    0.10045    0.38773   1.00
H2       0.57179    -0.09098   0.38330   1.00
H2       0.58657    0.07275    0.34476   1.00
H2       0.61594    -0.06494   0.38620   1.00
H2       0.60098    0.05255    0.38998   1.00
H2       0.57519    -0.04385   0.36263   1.00
H2       0.68780    0.11958    0.40456   1.00
H2       0.57485    -0.11383   0.27693   1.00
H2       0.64007    0.12975    0.42084   1.00
H2       0.54930    -0.12149   0.32093   1.00
H2       0.65973    0.08261    0.42695   1.00
H2       0.54901    -0.07502   0.29888   1.00
C4       0.74590    0.24751    0.01975   1.00
C4       0.74576    0.24597    -0.02191   1.00
C3       0.72532    0.27672    0.04103   1.00
C3       0.72183    0.27090    -0.04504   1.00
C3       0.76734    0.21904    0.04146   1.00
C3       0.77026    0.21859    -0.04170   1.00
C2       0.74460    0.24953    0.10405   1.00
C2       0.74686    0.24420    -0.10622   1.00
C3       0.72448    0.27764    0.08189   1.00
C3       0.72246    0.27023    -0.08591   1.00
C3       0.76555    0.22087    0.08304   1.00
C3       0.77020    0.21900    -0.08336   1.00
H1       0.71049    0.29864    0.02763   1.00
H1       0.70276    0.29021    -0.03306   1.00
C5       0.78994    0.18991    0.02165   1.00
C5       0.79378    0.19164    -0.01998   1.00
H1       0.70897    0.29937    0.09549   1.00
H1       0.70461    0.28907    -0.10091   1.00
H1       0.78019    0.20098    0.09948   1.00
H1       0.78743    0.20015    -0.09848   1.00
C6       0.80905    0.15752    0.04485   1.00
C6       0.82261    0.16573    -0.04119   1.00
H2       0.78845    0.14675    0.06655   1.00
H2       0.83789    0.18297    -0.06310   1.00
H2       0.81382    0.13165    0.02714   1.00
H2       0.84646    0.15680    -0.02228   1.00
C6       0.84871    0.17000    0.06394   1.00
C6       0.80334    0.12846    -0.05942   1.00
H2       0.84561    0.19890    0.07708   1.00
H2       0.77604    0.13652    -0.07383   1.00
C6       0.86667    0.14218    0.09541   1.00
C6       0.82820    0.10422    -0.08911   1.00
H2       0.87002    0.17367    0.04051   1.00
H2       0.79482    0.10923    -0.03546   1.00
C6       0.84100    0.14026    0.13265   1.00
C6       0.83630    0.12750    -0.12708   1.00
C6       0.87266    0.10038    0.07926   1.00
C6       0.86747    0.09097    -0.07107   1.00
C6       0.90720    0.15841    0.10755   1.00
C6       0.80484    0.06711    -0.10054   1.00
H2       0.83569    0.16940    0.14442   1.00
H2       0.80915    0.13783    -0.14020   1.00
H2       0.81281    0.12685    0.12670   1.00
H2       0.85471    0.15280    -0.12154   1.00
H2       0.85506    0.12299    0.15541   1.00
H2       0.85127    0.10946    -0.14863   1.00
H2       0.88773    0.08198    0.10045   1.00
H2       0.88330    0.07179    -0.09098   1.00
H2       0.84476    0.08657    0.07275   1.00
H2       0.88620    0.11594    -0.06494   1.00
H2       0.88998    0.10098    0.05255   1.00
H2       0.86263    0.07519    -0.04385   1.00
H2       0.90456    0.18780    0.11958   1.00
H2       0.77693    0.07485    -0.11383   1.00
H2       0.92084    0.14007    0.12975   1.00
H2       0.82093    0.04930    -0.12149   1.00
H2       0.92695    0.15973    0.08261   1.00
H2       0.79888    0.04901    -0.07502   1.00
C4       0.99590    1.00249    1.23025   1.00
C4       0.99576    1.00403    1.27191   1.00
C3       0.97532    0.97328    1.20897   1.00
C3       0.97183    0.97910    1.29504   1.00
C3       1.01734    1.03096    1.20854   1.00
C3       1.02026    1.03141    1.29170   1.00
C2       0.99460    1.00047    1.14595   1.00
C2       0.99686    1.00580    1.35622   1.00
C3       0.97448    0.97236    1.16811   1.00
C3       0.97246    0.97977    1.33591   1.00
C3       1.01555    1.02913    1.16696   1.00
C3       1.02020    1.03100    1.33336   1.00
H1       0.96049    0.95136    1.22237   1.00
H1       0.95276    0.95979    1.28306   1.00
C5       1.03994    1.06009    1.22835   1.00
C5       1.04378    1.05836    1.26998   1.00
H1       0.95897    0.95063    1.15451   1.00
H1       0.95461    0.96093    1.35091   1.00
H1       1.03019    1.04902    1.15052   1.00
H1       1.03743    1.04985    1.34848   1.00
C6       1.05905    1.09248    1.20515   1.00
C6       1.07261    1.08427    1.29119   1.00
H2       1.03845    1.10325    1.18345   1.00
H2       1.08789    1.06703    1.31310   1.00
H2       1.06382    1.11835    1.22286   1.00
H2       1.09646    1.09320    1.27228   1.00
C6       1.09871    1.08000    1.18606   1.00
C6       1.05334    1.12154    1.30942   1.00
H2       1.09561    1.05110    1.17292   1.00
H2       1.02604    1.11348    1.32383   1.00
C6       1.11667    1.10782    1.15459   1.00
C6       1.07820    1.14578    1.33911   1.00
H2       1.12002    1.07633    1.20949   1.00
H2       1.04482    1.14077    1.28546   1.00
C6       1.09100    1.10974    1.11735   1.00
C6       1.08630    1.12250    1.37708   1.00
C6       1.12266    1.14962    1.17074   1.00
C6       1.11747    1.15903    1.32107   1.00
C6       1.15720    1.09159    1.14245   1.00
C6       1.05484    1.18289    1.35054   1.00
H2       1.08569    1.08060    1.10558   1.00
H2       1.05915    1.11217    1.39020   1.00
H2       1.06281    1.12315    1.12330   1.00
H2       1.10471    1.09720    1.37154   1.00
H2       1.10506    1.12701    1.09459   1.00
H2       1.10127    1.14054    1.39863   1.00
H2       1.13773    1.16802    1.14955   1.00
H2       1.13330    1.17821    1.34098   1.00
H2       1.09476    1.16343    1.17725   1.00
H2       1.13620    1.13406    1.31494   1.00
H2       1.13998    1.14902    1.19745   1.00
H2       1.11263    1.17481    1.29385   1.00
H2       1.15456    1.06220    1.13042   1.00
H2       1.02693    1.17515    1.36383   1.00
H2       1.17084    1.10993    1.12025   1.00
H2       1.07093    1.20070    1.37149   1.00
H2       1.17695    1.09027    1.16739   1.00
H2       1.04888    1.20099    1.32502   1.00
C4       1.00249    1.23025    0.99590   1.00
C4       1.00403    1.27191    0.99576   1.00
C3       0.97328    1.20897    0.97532   1.00
C3       0.97910    1.29504    0.97183   1.00
C3       1.03096    1.20854    1.01734   1.00
C3       1.03141    1.29170    1.02026   1.00
C2       1.00047    1.14595    0.99460   1.00
C2       1.00580    1.35622    0.99686   1.00
C3       0.97236    1.16811    0.97448   1.00
C3       0.97977    1.33591    0.97246   1.00
C3       1.02913    1.16696    1.01555   1.00
C3       1.03100    1.33336    1.02020   1.00
H1       0.95136    1.22237    0.96049   1.00
H1       0.95979    1.28306    0.95276   1.00
C5       1.06009    1.22835    1.03994   1.00
C5       1.05836    1.26998    1.04378   1.00
H1       0.95063    1.15451    0.95897   1.00
H1       0.96093    1.35091    0.95461   1.00
H1       1.04902    1.15052    1.03019   1.00
H1       1.04985    1.34848    1.03743   1.00
C6       1.09248    1.20515    1.05905   1.00
C6       1.08427    1.29119    1.07261   1.00
H2       1.10325    1.18345    1.03845   1.00
H2       1.06703    1.31310    1.08789   1.00
H2       1.11835    1.22286    1.06382   1.00
H2       1.09320    1.27228    1.09646   1.00
C6       1.08000    1.18606    1.09871   1.00
C6       1.12154    1.30942    1.05334   1.00
H2       1.05110    1.17292    1.09561   1.00
H2       1.11348    1.32383    1.02604   1.00
C6       1.10782    1.15459    1.11667   1.00
C6       1.14578    1.33911    1.07820   1.00
H2       1.07633    1.20949    1.12002   1.00
H2       1.14077    1.28546    1.04482   1.00
C6       1.10974    1.11735    1.09100   1.00
C6       1.12250    1.37708    1.08630   1.00
C6       1.14962    1.17074    1.12266   1.00
C6       1.15903    1.32107    1.11747   1.00
C6       1.09159    1.14245    1.15720   1.00
C6       1.18289    1.35054    1.05484   1.00
H2       1.08060    1.10558    1.08569   1.00
H2       1.11217    1.39020    1.05915   1.00
H2       1.12315    1.12330    1.06281   1.00
H2       1.09720    1.37154    1.10471   1.00
H2       1.12701    1.09459    1.10506   1.00
H2       1.14054    1.39863    1.10127   1.00
H2       1.16802    1.14955    1.13773   1.00
H2       1.17821    1.34098    1.13330   1.00
H2       1.16343    1.17725    1.09476   1.00
H2       1.13406    1.31494    1.13620   1.00
H2       1.14902    1.19745    1.13998   1.00
H2       1.17481    1.29385    1.11263   1.00
H2       1.06220    1.13042    1.15456   1.00
H2       1.17515    1.36383    1.02693   1.00
H2       1.10993    1.12025    1.17084   1.00
H2       1.20070    1.37149    1.07093   1.00
H2       1.09027    1.16739    1.17695   1.00
H2       1.20099    1.32502    1.04888   1.00
C4       0.76975    0.99590    0.99751   1.00
C4       0.72809    0.99576    0.99597   1.00
C3       0.79103    0.97532    1.02672   1.00
C3       0.70496    0.97183    1.02090   1.00
C3       0.79146    1.01734    0.96904   1.00
C3       0.70830    1.02026    0.96859   1.00
C2       0.85405    0.99460    0.99953   1.00
C2       0.64378    0.99686    0.99420   1.00
C3       0.83189    0.97448    1.02764   1.00
C3       0.66409    0.97246    1.02023   1.00
C3       0.83304    1.01555    0.97087   1.00
C3       0.66664    1.02020    0.96900   1.00
H1       0.77763    0.96049    1.04864   1.00
H1       0.71694    0.95276    1.04021   1.00
C5       0.77165    1.03994    0.93991   1.00
C5       0.73002    1.04378    0.94164   1.00
H1       0.84549    0.95897    1.04937   1.00
H1       0.64909    0.95461    1.03907   1.00
H1       0.84948    1.03019    0.95098   1.00
H1       0.65152    1.03743    0.95015   1.00
C6       0.79485    1.05905    0.90752   1.00
C6       0.70881    1.07261    0.91573   1.00
H2       0.81655    1.03845    0.89675   1.00
H2       0.68690    1.08789    0.93297   1.00
H2       0.77714    1.06382    0.88165   1.00
H2       0.72772    1.09646    0.90680   1.00
C6       0.81394    1.09871    0.92000   1.00
C6       0.69058    1.05334    0.87846   1.00
H2       0.82708    1.09561    0.94890   1.00
H2       0.67617    1.02604    0.88652   1.00
C6       0.84541    1.11667    0.89218   1.00
C6       0.66089    1.07820    0.85422   1.00
H2       0.79051    1.12002    0.92367   1.00
H2       0.71454    1.04482    0.85923   1.00
C6       0.88265    1.09100    0.89026   1.00
C6       0.62292    1.08630    0.87750   1.00
C6       0.82926    1.12266    0.85038   1.00
C6       0.67893    1.11747    0.84097   1.00
C6       0.85755    1.15720    0.90841   1.00
C6       0.64946    1.05484    0.81711   1.00
H2       0.89442    1.08569    0.91940   1.00
H2       0.60980    1.05915    0.88783   1.00
H2       0.87670    1.06281    0.87685   1.00
H2       0.62846    1.10471    0.90280   1.00
H2       0.90541    1.10506    0.87299   1.00
H2       0.60137    1.10127    0.85946   1.00
H2       0.85045    1.13773    0.83198   1.00
H2       0.65902    1.13330    0.82179   1.00
H2       0.82275    1.09476    0.83657   1.00
H2       0.68506    1.13620    0.86594   1.00
H2       0.80255    1.13998    0.85098   1.00
H2       0.70615    1.11263    0.82519   1.00
H2       0.86958    1.15456    0.93780   1.00
H2       0.63617    1.02693    0.82485   1.00
H2       0.87975    1.17084    0.89007   1.00
H2       0.62851    1.07093    0.79930   1.00
H2       0.83261    1.17695    0.90973   1.00
H2       0.67498    1.04888    0.79901   1.00
C4       1.23025    0.99590    1.00249   1.00
C4       1.27191    0.99576    1.00403   1.00
C3       1.20897    0.97532    0.97328   1.00
C3       1.29504    0.97183    0.97910   1.00
C3       1.20854    1.01734    1.03096   1.00
C3       1.29170    1.02026    1.03141   1.00
C2       1.14595    0.99460    1.00047   1.00
C2       1.35622    0.99686    1.00580   1.00
C3       1.16811    0.97448    0.97236   1.00
C3       1.33591    0.97246    0.97977   1.00
C3       1.16696    1.01555    1.02913   1.00
C3       1.33336    1.02020    1.03100   1.00
H1       1.22237    0.96049    0.95136   1.00
H1       1.28306    0.95276    0.95979   1.00
C5       1.22835    1.03994    1.06009   1.00
C5       1.26998    1.04378    1.05836   1.00
H1       1.15451    0.95897    0.95063   1.00
H1       1.35091    0.95461    0.96093   1.00
H1       1.15052    1.03019    1.04902   1.00
H1       1.34848    1.03743    1.04985   1.00
C6       1.20515    1.05905    1.09248   1.00
C6       1.29119    1.07261    1.08427   1.00
H2       1.18345    1.03845    1.10325   1.00
H2       1.31310    1.08789    1.06703   1.00
H2       1.22286    1.06382    1.11835   1.00
H2       1.27228    1.09646    1.09320   1.00
C6       1.18606    1.09871    1.08000   1.00
C6       1.30942    1.05334    1.12154   1.00
H2       1.17292    1.09561    1.05110   1.00
H2       1.32383    1.02604    1.11348   1.00
C6       1.15459    1.11667    1.10782   1.00
C6       1.33911    1.07820    1.14578   1.00
H2       1.20949    1.12002    1.07633   1.00
H2       1.28546    1.04482    1.14077   1.00
C6       1.11735    1.09100    1.10974   1.00
C6       1.37708    1.08630    1.12250   1.00
C6       1.17074    1.12266    1.14962   1.00
C6       1.32107    1.11747    1.15903   1.00
C6       1.14245    1.15720    1.09159   1.00
C6       1.35054    1.05484    1.18289   1.00
H2       1.10558    1.08569    1.08060   1.00
H2       1.39020    1.05915    1.11217   1.00
H2       1.12330    1.06281    1.12315   1.00
H2       1.37154    1.10471    1.09720   1.00
H2       1.09459    1.10506    1.12701   1.00
H2       1.39863    1.10127    1.14054   1.00
H2       1.14955    1.13773    1.16802   1.00
H2       1.34098    1.13330    1.17821   1.00
H2       1.17725    1.09476    1.16343   1.00
H2       1.31494    1.13620    1.13406   1.00
H2       1.19745    1.13998    1.14902   1.00
H2       1.29385    1.11263    1.17481   1.00
H2       1.13042    1.15456    1.06220   1.00
H2       1.36383    1.02693    1.17515   1.00
H2       1.12025    1.17084    1.10993   1.00
H2       1.37149    1.07093    1.20070   1.00
H2       1.16739    1.17695    1.09027   1.00
H2       1.32502    1.04888    1.20099   1.00
C4       0.99751    0.76975    0.99590   1.00
C4       0.99597    0.72809    0.99576   1.00
C3       1.02672    0.79103    0.97532   1.00
C3       1.02090    0.70496    0.97183   1.00
C3       0.96904    0.79146    1.01734   1.00
C3       0.96859    0.70830    1.02026   1.00
C2       0.99953    0.85405    0.99460   1.00
C2       0.99420    0.64378    0.99686   1.00
C3       1.02764    0.83189    0.97448   1.00
C3       1.02023    0.66409    0.97246   1.00
C3       0.97087    0.83304    1.01555   1.00
C3       0.96900    0.66664    1.02020   1.00
H1       1.04864    0.77763    0.96049   1.00
H1       1.04021    0.71694    0.95276   1.00
C5       0.93991    0.77165    1.03994   1.00
C5       0.94164    0.73002    1.04378   1.00
H1       1.04937    0.84549    0.95897   1.00
H1       1.03907    0.64909    0.95461   1.00
H1       0.95098    0.84948    1.03019   1.00
H1       0.95015    0.65152    1.03743   1.00
C6       0.90752    0.79485    1.05905   1.00
C6       0.91573    0.70881    1.07261   1.00
H2       0.89675    0.81655    1.03845   1.00
H2       0.93297    0.68690    1.08789   1.00
H2       0.88165    0.77714    1.06382   1.00
H2       0.90680    0.72772    1.09646   1.00
C6       0.92000    0.81394    1.09871   1.00
C6       0.87846    0.69058    1.05334   1.00
H2       0.94890    0.82708    1.09561   1.00
H2       0.88652    0.67617    1.02604   1.00
C6       0.89218    0.84541    1.11667   1.00
C6       0.85422    0.66089    1.07820   1.00
H2       0.92367    0.79051    1.12002   1.00
H2       0.85923    0.71454    1.04482   1.00
C6       0.89026    0.88265    1.09100   1.00
C6       0.87750    0.62292    1.08630   1.00
C6       0.85038    0.82926    1.12266   1.00
C6       0.84097    0.67893    1.11747   1.00
C6       0.90841    0.85755    1.15720   1.00
C6       0.81711    0.64946    1.05484   1.00
H2       0.91940    0.89442    1.08569   1.00
H2       0.88783    0.60980    1.05915   1.00
H2       0.87685    0.87670    1.06281   1.00
H2       0.90280    0.62846    1.10471   1.00
H2       0.87299    0.90541    1.10506   1.00
H2       0.85946    0.60137    1.10127   1.00
H2       0.83198    0.85045    1.13773   1.00
H2       0.82179    0.65902    1.13330   1.00
H2       0.83657    0.82275    1.09476   1.00
H2       0.86594    0.68506    1.13620   1.00
H2       0.85098    0.80255    1.13998   1.00
H2       0.82519    0.70615    1.11263   1.00
H2       0.93780    0.86958    1.15456   1.00
H2       0.82485    0.63617    1.02693   1.00
H2       0.89007    0.87975    1.17084   1.00
H2       0.79930    0.62851    1.07093   1.00
H2       0.90973    0.83261    1.17695   1.00
H2       0.79901    0.67498    1.04888   1.00
C4       0.99590    0.99751    0.76975   1.00
C4       0.99576    0.99597    0.72809   1.00
C3       0.97532    1.02672    0.79103   1.00
C3       0.97183    1.02090    0.70496   1.00
C3       1.01734    0.96904    0.79146   1.00
C3       1.02026    0.96859    0.70830   1.00
C2       0.99460    0.99953    0.85405   1.00
C2       0.99686    0.99420    0.64378   1.00
C3       0.97448    1.02764    0.83189   1.00
C3       0.97246    1.02023    0.66409   1.00
C3       1.01555    0.97087    0.83304   1.00
C3       1.02020    0.96900    0.66664   1.00
H1       0.96049    1.04864    0.77763   1.00
H1       0.95276    1.04021    0.71694   1.00
C5       1.03994    0.93991    0.77165   1.00
C5       1.04378    0.94164    0.73002   1.00
H1       0.95897    1.04937    0.84549   1.00
H1       0.95461    1.03907    0.64909   1.00
H1       1.03019    0.95098    0.84948   1.00
H1       1.03743    0.95015    0.65152   1.00
C6       1.05905    0.90752    0.79485   1.00
C6       1.07261    0.91573    0.70881   1.00
H2       1.03845    0.89675    0.81655   1.00
H2       1.08789    0.93297    0.68690   1.00
H2       1.06382    0.88165    0.77714   1.00
H2       1.09646    0.90680    0.72772   1.00
C6       1.09871    0.92000    0.81394   1.00
C6       1.05334    0.87846    0.69058   1.00
H2       1.09561    0.94890    0.82708   1.00
H2       1.02604    0.88652    0.67617   1.00
C6       1.11667    0.89218    0.84541   1.00
C6       1.07820    0.85422    0.66089   1.00
H2       1.12002    0.92367    0.79051   1.00
H2       1.04482    0.85923    0.71454   1.00
C6       1.09100    0.89026    0.88265   1.00
C6       1.08630    0.87750    0.62292   1.00
C6       1.12266    0.85038    0.82926   1.00
C6       1.11747    0.84097    0.67893   1.00
C6       1.15720    0.90841    0.85755   1.00
C6       1.05484    0.81711    0.64946   1.00
H2       1.08569    0.91940    0.89442   1.00
H2       1.05915    0.88783    0.60980   1.00
H2       1.06281    0.87685    0.87670   1.00
H2       1.10471    0.90280    0.62846   1.00
H2       1.10506    0.87299    0.90541   1.00
H2       1.10127    0.85946    0.60137   1.00
H2       1.13773    0.83198    0.85045   1.00
H2       1.13330    0.82179    0.65902   1.00
H2       1.09476    0.83657    0.82275   1.00
H2       1.13620    0.86594    0.68506   1.00
H2       1.13998    0.85098    0.80255   1.00
H2       1.11263    0.82519    0.70615   1.00
H2       1.15456    0.93780    0.86958   1.00
H2       1.02693    0.82485    0.63617   1.00
H2       1.17084    0.89007    0.87975   1.00
H2       1.07093    0.79930    0.62851   1.00
H2       1.17695    0.90973    0.83261   1.00
H2       1.04888    0.79901    0.67498   1.00
C4       0.49590    0.50249    1.23025   1.00
C4       0.49576    0.50403    1.27191   1.00
C3       0.47532    0.47328    1.20897   1.00
C3       0.47183    0.47910    1.29504   1.00
C3       0.51734    0.53096    1.20854   1.00
C3       0.52026    0.53141    1.29170   1.00
C2       0.49460    0.50047    1.14595   1.00
C2       0.49686    0.50580    1.35622   1.00
C3       0.47448    0.47236    1.16811   1.00
C3       0.47246    0.47977    1.33591   1.00
C3       0.51555    0.52913    1.16696   1.00
C3       0.52020    0.53100    1.33336   1.00
H1       0.46049    0.45136    1.22237   1.00
H1       0.45276    0.45979    1.28306   1.00
C5       0.53994    0.56009    1.22835   1.00
C5       0.54378    0.55836    1.26998   1.00
H1       0.45897    0.45063    1.15451   1.00
H1       0.45461    0.46093    1.35091   1.00
H1       0.53019    0.54902    1.15052   1.00
H1       0.53743    0.54985    1.34848   1.00
C6       0.55905    0.59248    1.20515   1.00
C6       0.57261    0.58427    1.29119   1.00
H2       0.53845    0.60325    1.18345   1.00
H2       0.58789    0.56703    1.31310   1.00
H2       0.56382    0.61835    1.22286   1.00
H2       0.59646    0.59320    1.27228   1.00
C6       0.59871    0.58000    1.18606   1.00
C6       0.55334    0.62154    1.30942   1.00
H2       0.59561    0.55110    1.17292   1.00
H2       0.52604    0.61348    1.32383   1.00
C6       0.61667    0.60782    1.15459   1.00
C6       0.57820    0.64578    1.33911   1.00
H2       0.62002    0.57633    1.20949   1.00
H2       0.54482    0.64077    1.28546   1.00
C6       0.59100    0.60974    1.11735   1.00
C6       0.58630    0.62250    1.37708   1.00
C6       0.62266    0.64962    1.17074   1.00
C6       0.61747    0.65903    1.32107   1.00
C6       0.65720    0.59159    1.14245   1.00
C6       0.55484    0.68289    1.35054   1.00
H2       0.58569    0.58060    1.10558   1.00
H2       0.55915    0.61217    1.39020   1.00
H2       0.56281    0.62315    1.12330   1.00
H2       0.60471    0.59720    1.37154   1.00
H2       0.60506    0.62701    1.09459   1.00
H2       0.60127    0.64054    1.39863   1.00
H2       0.63773    0.66802    1.14955   1.00
H2       0.63330    0.67821    1.34098   1.00
H2       0.59476    0.66343    1.17725   1.00
H2       0.63620    0.63406    1.31494   1.00
H2       0.63998    0.64902    1.19745   1.00
H2       0.61263    0.67481    1.29385   1.00
H2       0.65456    0.56220    1.13042   1.00
H2       0.52693    0.67515    1.36383   1.00
H2       0.67084    0.60993    1.12025   1.00
H2       0.57093    0.70070    1.37149   1.00
H2       0.67695    0.59027    1.16739   1.00
H2       0.54888    0.70099    1.32502   1.00
C4       0.50249    0.73025    0.99590   1.00
C4       0.50403    0.77191    0.99576   1.00
C3       0.47328    0.70897    0.97532   1.00
C3       0.47910    0.79504    0.97183   1.00
C3       0.53096    0.70854    1.01734   1.00
C3       0.53141    0.79170    1.02026   1.00
C2       0.50047    0.64595    0.99460   1.00
C2       0.50580    0.85622    0.99686   1.00
C3       0.47236    0.66811    0.97448   1.00
C3       0.47977    0.83591    0.97246   1.00
C3       0.52913    0.66696    1.01555   1.00
C3       0.53100    0.83336    1.02020   1.00
H1       0.45136    0.72237    0.96049   1.00
H1       0.45979    0.78306    0.95276   1.00
C5       0.56009    0.72835    1.03994   1.00
C5       0.55836    0.76998    1.04378   1.00
H1       0.45063    0.65451    0.95897   1.00
H1       0.46093    0.85091    0.95461   1.00
H1       0.54902    0.65052    1.03019   1.00
H1       0.54985    0.84848    1.03743   1.00
C6       0.59248    0.70515    1.05905   1.00
C6       0.58427    0.79119    1.07261   1.00
H2       0.60325    0.68345    1.03845   1.00
H2       0.56703    0.81310    1.08789   1.00
H2       0.61835    0.72286    1.06382   1.00
H2       0.59320    0.77228    1.09646   1.00
C6       0.58000    0.68606    1.09871   1.00
C6       0.62154    0.80942    1.05334   1.00
H2       0.55110    0.67292    1.09561   1.00
H2       0.61348    0.82383    1.02604   1.00
C6       0.60782    0.65459    1.11667   1.00
C6       0.64578    0.83911    1.07820   1.00
H2       0.57633    0.70949    1.12002   1.00
H2       0.64077    0.78546    1.04482   1.00
C6       0.60974    0.61735    1.09100   1.00
C6       0.62250    0.87708    1.08630   1.00
C6       0.64962    0.67074    1.12266   1.00
C6       0.65903    0.82107    1.11747   1.00
C6       0.59159    0.64245    1.15720   1.00
C6       0.68289    0.85054    1.05484   1.00
H2       0.58060    0.60558    1.08569   1.00
H2       0.61217    0.89020    1.05915   1.00
H2       0.62315    0.62330    1.06281   1.00
H2       0.59720    0.87154    1.10471   1.00
H2       0.62701    0.59459    1.10506   1.00
H2       0.64054    0.89863    1.10127   1.00
H2       0.66802    0.64955    1.13773   1.00
H2       0.67821    0.84098    1.13330   1.00
H2       0.66343    0.67725    1.09476   1.00
H2       0.63406    0.81494    1.13620   1.00
H2       0.64902    0.69745    1.13998   1.00
H2       0.67481    0.79385    1.11263   1.00
H2       0.56220    0.63042    1.15456   1.00
H2       0.67515    0.86383    1.02693   1.00
H2       0.60993    0.62025    1.17084   1.00
H2       0.70070    0.87149    1.07093   1.00
H2       0.59027    0.66739    1.17695   1.00
H2       0.70099    0.82502    1.04888   1.00
C4       0.26975    0.49590    0.99751   1.00
C4       0.22809    0.49576    0.99597   1.00
C3       0.29103    0.47532    1.02672   1.00
C3       0.20496    0.47183    1.02090   1.00
C3       0.29146    0.51734    0.96904   1.00
C3       0.20830    0.52026    0.96859   1.00
C2       0.35405    0.49460    0.99953   1.00
C2       0.14378    0.49686    0.99420   1.00
C3       0.33189    0.47448    1.02764   1.00
C3       0.16409    0.47246    1.02023   1.00
C3       0.33304    0.51555    0.97087   1.00
C3       0.16664    0.52020    0.96900   1.00
H1       0.27763    0.46049    1.04864   1.00
H1       0.21694    0.45276    1.04021   1.00
C5       0.27165    0.53994    0.93991   1.00
C5       0.23002    0.54378    0.94164   1.00
H1       0.34549    0.45897    1.04937   1.00
H1       0.14909    0.45461    1.03907   1.00
H1       0.34948    0.53019    0.95098   1.00
H1       0.15152    0.53743    0.95015   1.00
C6       0.29485    0.55905    0.90752   1.00
C6       0.20881    0.57261    0.91573   1.00
H2       0.31655    0.53845    0.89675   1.00
H2       0.18690    0.58789    0.93297   1.00
H2       0.27714    0.56382    0.88165   1.00
H2       0.22772    0.59646    0.90680   1.00
C6       0.31394    0.59871    0.92000   1.00
C6       0.19058    0.55334    0.87846   1.00
H2       0.32708    0.59561    0.94890   1.00
H2       0.17617    0.52604    0.88652   1.00
C6       0.34541    0.61667    0.89218   1.00
C6       0.16089    0.57820    0.85422   1.00
H2       0.29051    0.62002    0.92367   1.00
H2       0.21454    0.54482    0.85923   1.00
C6       0.38265    0.59100    0.89026   1.00
C6       0.12292    0.58630    0.87750   1.00
C6       0.32926    0.62266    0.85038   1.00
C6       0.17893    0.61747    0.84097   1.00
C6       0.35755    0.65720    0.90841   1.00
C6       0.14946    0.55484    0.81711   1.00
H2       0.39442    0.58569    0.91940   1.00
H2       0.10980    0.55915    0.88783   1.00
H2       0.37670    0.56281    0.87685   1.00
H2       0.12846    0.60471    0.90280   1.00
H2       0.40541    0.60506    0.87299   1.00
H2       0.10137    0.60127    0.85946   1.00
H2       0.35045    0.63773    0.83198   1.00
H2       0.15902    0.63330    0.82179   1.00
H2       0.32275    0.59476    0.83657   1.00
H2       0.18506    0.63620    0.86594   1.00
H2       0.30255    0.63998    0.85098   1.00
H2       0.20615    0.61263    0.82519   1.00
H2       0.36958    0.65456    0.93780   1.00
H2       0.13617    0.52693    0.82485   1.00
H2       0.37975    0.67084    0.89007   1.00
H2       0.12851    0.57093    0.79930   1.00
H2       0.33261    0.67695    0.90973   1.00
H2       0.17498    0.54888    0.79901   1.00
C4       0.73025    0.49590    1.00249   1.00
C4       0.77191    0.49576    1.00403   1.00
C3       0.70897    0.47532    0.97328   1.00
C3       0.79504    0.47183    0.97910   1.00
C3       0.70854    0.51734    1.03096   1.00
C3       0.79170    0.52026    1.03141   1.00
C2       0.64595    0.49460    1.00047   1.00
C2       0.85622    0.49686    1.00580   1.00
C3       0.66811    0.47448    0.97236   1.00
C3       0.83591    0.47246    0.97977   1.00
C3       0.66696    0.51555    1.02913   1.00
C3       0.83336    0.52020    1.03100   1.00
H1       0.72237    0.46049    0.95136   1.00
H1       0.78306    0.45276    0.95979   1.00
C5       0.72835    0.53994    1.06009   1.00
C5       0.76998    0.54378    1.05836   1.00
H1       0.65451    0.45897    0.95063   1.00
H1       0.85091    0.45461    0.96093   1.00
H1       0.65052    0.53019    1.04902   1.00
H1       0.84848    0.53743    1.04985   1.00
C6       0.70515    0.55905    1.09248   1.00
C6       0.79119    0.57261    1.08427   1.00
H2       0.68345    0.53845    1.10325   1.00
H2       0.81310    0.58789    1.06703   1.00
H2       0.72286    0.56382    1.11835   1.00
H2       0.77228    0.59646    1.09320   1.00
C6       0.68606    0.59871    1.08000   1.00
C6       0.80942    0.55334    1.12154   1.00
H2       0.67292    0.59561    1.05110   1.00
H2       0.82383    0.52604    1.11348   1.00
C6       0.65459    0.61667    1.10782   1.00
C6       0.83911    0.57820    1.14578   1.00
H2       0.70949    0.62002    1.07633   1.00
H2       0.78546    0.54482    1.14077   1.00
C6       0.61735    0.59100    1.10974   1.00
C6       0.87708    0.58630    1.12250   1.00
C6       0.67074    0.62266    1.14962   1.00
C6       0.82107    0.61747    1.15903   1.00
C6       0.64245    0.65720    1.09159   1.00
C6       0.85054    0.55484    1.18289   1.00
H2       0.60558    0.58569    1.08060   1.00
H2       0.89020    0.55915    1.11217   1.00
H2       0.62330    0.56281    1.12315   1.00
H2       0.87154    0.60471    1.09720   1.00
H2       0.59459    0.60506    1.12701   1.00
H2       0.89863    0.60127    1.14054   1.00
H2       0.64955    0.63773    1.16802   1.00
H2       0.84098    0.63330    1.17821   1.00
H2       0.67725    0.59476    1.16343   1.00
H2       0.81494    0.63620    1.13406   1.00
H2       0.69745    0.63998    1.14902   1.00
H2       0.79385    0.61263    1.17481   1.00
H2       0.63042    0.65456    1.06220   1.00
H2       0.86383    0.52693    1.17515   1.00
H2       0.62025    0.67084    1.10993   1.00
H2       0.87149    0.57093    1.20070   1.00
H2       0.66739    0.67695    1.09027   1.00
H2       0.82502    0.54888    1.20099   1.00
C4       0.49751    0.26975    0.99590   1.00
C4       0.49597    0.22809    0.99576   1.00
C3       0.52672    0.29103    0.97532   1.00
C3       0.52090    0.20496    0.97183   1.00
C3       0.46904    0.29146    1.01734   1.00
C3       0.46859    0.20830    1.02026   1.00
C2       0.49953    0.35405    0.99460   1.00
C2       0.49420    0.14378    0.99686   1.00
C3       0.52764    0.33189    0.97448   1.00
C3       0.52023    0.16409    0.97246   1.00
C3       0.47087    0.33304    1.01555   1.00
C3       0.46900    0.16664    1.02020   1.00
H1       0.54864    0.27763    0.96049   1.00
H1       0.54021    0.21694    0.95276   1.00
C5       0.43991    0.27165    1.03994   1.00
C5       0.44164    0.23002    1.04378   1.00
H1       0.54937    0.34549    0.95897   1.00
H1       0.53907    0.14909    0.95461   1.00
H1       0.45098    0.34948    1.03019   1.00
H1       0.45015    0.15152    1.03743   1.00
C6       0.40752    0.29485    1.05905   1.00
C6       0.41573    0.20881    1.07261   1.00
H2       0.39675    0.31655    1.03845   1.00
H2       0.43297    0.18690    1.08789   1.00
H2       0.38165    0.27714    1.06382   1.00
H2       0.40680    0.22772    1.09646   1.00
C6       0.42000    0.31394    1.09871   1.00
C6       0.37846    0.19058    1.05334   1.00
H2       0.44890    0.32708    1.09561   1.00
H2       0.38652    0.17617    1.02604   1.00
C6       0.39218    0.34541    1.11667   1.00
C6       0.35422    0.16089    1.07820   1.00
H2       0.42367    0.29051    1.12002   1.00
H2       0.35923    0.21454    1.04482   1.00
C6       0.39026    0.38265    1.09100   1.00
C6       0.37750    0.12292    1.08630   1.00
C6       0.35038    0.32926    1.12266   1.00
C6       0.34097    0.17893    1.11747   1.00
C6       0.40841    0.35755    1.15720   1.00
C6       0.31711    0.14946    1.05484   1.00
H2       0.41940    0.39442    1.08569   1.00
H2       0.38783    0.10980    1.05915   1.00
H2       0.37685    0.37670    1.06281   1.00
H2       0.40280    0.12846    1.10471   1.00
H2       0.37299    0.40541    1.10506   1.00
H2       0.35946    0.10137    1.10127   1.00
H2       0.33198    0.35045    1.13773   1.00
H2       0.32179    0.15902    1.13330   1.00
H2       0.33657    0.32275    1.09476   1.00
H2       0.36594    0.18506    1.13620   1.00
H2       0.35098    0.30255    1.13998   1.00
H2       0.32519    0.20615    1.11263   1.00
H2       0.43780    0.36958    1.15456   1.00
H2       0.32485    0.13617    1.02693   1.00
H2       0.39007    0.37975    1.17084   1.00
H2       0.29930    0.12851    1.07093   1.00
H2       0.40973    0.33261    1.17695   1.00
H2       0.29901    0.17498    1.04888   1.00
C4       0.49590    0.49751    0.76975   1.00
C4       0.49576    0.49597    0.72809   1.00
C3       0.47532    0.52672    0.79103   1.00
C3       0.47183    0.52090    0.70496   1.00
C3       0.51734    0.46904    0.79146   1.00
C3       0.52026    0.46859    0.70830   1.00
C2       0.49460    0.49953    0.85405   1.00
C2       0.49686    0.49420    0.64378   1.00
C3       0.47448    0.52764    0.83189   1.00
C3       0.47246    0.52023    0.66409   1.00
C3       0.51555    0.47087    0.83304   1.00
C3       0.52020    0.46900    0.66664   1.00
H1       0.46049    0.54864    0.77763   1.00
H1       0.45276    0.54021    0.71694   1.00
C5       0.53994    0.43991    0.77165   1.00
C5       0.54378    0.44164    0.73002   1.00
H1       0.45897    0.54937    0.84549   1.00
H1       0.45461    0.53907    0.64909   1.00
H1       0.53019    0.45098    0.84948   1.00
H1       0.53743    0.45015    0.65152   1.00
C6       0.55905    0.40752    0.79485   1.00
C6       0.57261    0.41573    0.70881   1.00
H2       0.53845    0.39675    0.81655   1.00
H2       0.58789    0.43297    0.68690   1.00
H2       0.56382    0.38165    0.77714   1.00
H2       0.59646    0.40680    0.72772   1.00
C6       0.59871    0.42000    0.81394   1.00
C6       0.55334    0.37846    0.69058   1.00
H2       0.59561    0.44890    0.82708   1.00
H2       0.52604    0.38652    0.67617   1.00
C6       0.61667    0.39218    0.84541   1.00
C6       0.57820    0.35422    0.66089   1.00
H2       0.62002    0.42367    0.79051   1.00
H2       0.54482    0.35923    0.71454   1.00
C6       0.59100    0.39026    0.88265   1.00
C6       0.58630    0.37750    0.62292   1.00
C6       0.62266    0.35038    0.82926   1.00
C6       0.61747    0.34097    0.67893   1.00
C6       0.65720    0.40841    0.85755   1.00
C6       0.55484    0.31711    0.64946   1.00
H2       0.58569    0.41940    0.89442   1.00
H2       0.55915    0.38783    0.60980   1.00
H2       0.56281    0.37685    0.87670   1.00
H2       0.60471    0.40280    0.62846   1.00
H2       0.60506    0.37299    0.90541   1.00
H2       0.60127    0.35946    0.60137   1.00
H2       0.63773    0.33198    0.85045   1.00
H2       0.63330    0.32179    0.65902   1.00
H2       0.59476    0.33657    0.82275   1.00
H2       0.63620    0.36594    0.68506   1.00
H2       0.63998    0.35098    0.80255   1.00
H2       0.61263    0.32519    0.70615   1.00
H2       0.65456    0.43780    0.86958   1.00
H2       0.52693    0.32485    0.63617   1.00
H2       0.67084    0.39007    0.87975   1.00
H2       0.57093    0.29930    0.62851   1.00
H2       0.67695    0.40973    0.83261   1.00
H2       0.54888    0.29901    0.67498   1.00
C4       0.49590    1.00249    0.73025   1.00
C4       0.49576    1.00403    0.77191   1.00
C3       0.47532    0.97328    0.70897   1.00
C3       0.47183    0.97910    0.79504   1.00
C3       0.51734    1.03096    0.70854   1.00
C3       0.52026    1.03141    0.79170   1.00
C2       0.49460    1.00047    0.64595   1.00
C2       0.49686    1.00580    0.85622   1.00
C3       0.47448    0.97236    0.66811   1.00
C3       0.47246    0.97977    0.83591   1.00
C3       0.51555    1.02913    0.66696   1.00
C3       0.52020    1.03100    0.83336   1.00
H1       0.46049    0.95136    0.72237   1.00
H1       0.45276    0.95979    0.78306   1.00
C5       0.53994    1.06009    0.72835   1.00
C5       0.54378    1.05836    0.76998   1.00
H1       0.45897    0.95063    0.65451   1.00
H1       0.45461    0.96093    0.85091   1.00
H1       0.53019    1.04902    0.65052   1.00
H1       0.53743    1.04985    0.84848   1.00
C6       0.55905    1.09248    0.70515   1.00
C6       0.57261    1.08427    0.79119   1.00
H2       0.53845    1.10325    0.68345   1.00
H2       0.58789    1.06703    0.81310   1.00
H2       0.56382    1.11835    0.72286   1.00
H2       0.59646    1.09320    0.77228   1.00
C6       0.59871    1.08000    0.68606   1.00
C6       0.55334    1.12154    0.80942   1.00
H2       0.59561    1.05110    0.67292   1.00
H2       0.52604    1.11348    0.82383   1.00
C6       0.61667    1.10782    0.65459   1.00
C6       0.57820    1.14578    0.83911   1.00
H2       0.62002    1.07633    0.70949   1.00
H2       0.54482    1.14077    0.78546   1.00
C6       0.59100    1.10974    0.61735   1.00
C6       0.58630    1.12250    0.87708   1.00
C6       0.62266    1.14962    0.67074   1.00
C6       0.61747    1.15903    0.82107   1.00
C6       0.65720    1.09159    0.64245   1.00
C6       0.55484    1.18289    0.85054   1.00
H2       0.58569    1.08060    0.60558   1.00
H2       0.55915    1.11217    0.89020   1.00
H2       0.56281    1.12315    0.62330   1.00
H2       0.60471    1.09720    0.87154   1.00
H2       0.60506    1.12701    0.59459   1.00
H2       0.60127    1.14054    0.89863   1.00
H2       0.63773    1.16802    0.64955   1.00
H2       0.63330    1.17821    0.84098   1.00
H2       0.59476    1.16343    0.67725   1.00
H2       0.63620    1.13406    0.81494   1.00
H2       0.63998    1.14902    0.69745   1.00
H2       0.61263    1.17481    0.79385   1.00
H2       0.65456    1.06220    0.63042   1.00
H2       0.52693    1.17515    0.86383   1.00
H2       0.67084    1.10993    0.62025   1.00
H2       0.57093    1.20070    0.87149   1.00
H2       0.67695    1.09027    0.66739   1.00
H2       0.54888    1.20099    0.82502   1.00
C4       0.50249    1.23025    0.49590   1.00
C4       0.50403    1.27191    0.49576   1.00
C3       0.47328    1.20897    0.47532   1.00
C3       0.47910    1.29504    0.47183   1.00
C3       0.53096    1.20854    0.51734   1.00
C3       0.53141    1.29170    0.52026   1.00
C2       0.50047    1.14595    0.49460   1.00
C2       0.50580    1.35622    0.49686   1.00
C3       0.47236    1.16811    0.47448   1.00
C3       0.47977    1.33591    0.47246   1.00
C3       0.52913    1.16696    0.51555   1.00
C3       0.53100    1.33336    0.52020   1.00
H1       0.45136    1.22237    0.46049   1.00
H1       0.45979    1.28306    0.45276   1.00
C5       0.56009    1.22835    0.53994   1.00
C5       0.55836    1.26998    0.54378   1.00
H1       0.45063    1.15451    0.45897   1.00
H1       0.46093    1.35091    0.45461   1.00
H1       0.54902    1.15052    0.53019   1.00
H1       0.54985    1.34848    0.53743   1.00
C6       0.59248    1.20515    0.55905   1.00
C6       0.58427    1.29119    0.57261   1.00
H2       0.60325    1.18345    0.53845   1.00
H2       0.56703    1.31310    0.58789   1.00
H2       0.61835    1.22286    0.56382   1.00
H2       0.59320    1.27228    0.59646   1.00
C6       0.58000    1.18606    0.59871   1.00
C6       0.62154    1.30942    0.55334   1.00
H2       0.55110    1.17292    0.59561   1.00
H2       0.61348    1.32383    0.52604   1.00
C6       0.60782    1.15459    0.61667   1.00
C6       0.64578    1.33911    0.57820   1.00
H2       0.57633    1.20949    0.62002   1.00
H2       0.64077    1.28546    0.54482   1.00
C6       0.60974    1.11735    0.59100   1.00
C6       0.62250    1.37708    0.58630   1.00
C6       0.64962    1.17074    0.62266   1.00
C6       0.65903    1.32107    0.61747   1.00
C6       0.59159    1.14245    0.65720   1.00
C6       0.68289    1.35054    0.55484   1.00
H2       0.58060    1.10558    0.58569   1.00
H2       0.61217    1.39020    0.55915   1.00
H2       0.62315    1.12330    0.56281   1.00
H2       0.59720    1.37154    0.60471   1.00
H2       0.62701    1.09459    0.60506   1.00
H2       0.64054    1.39863    0.60127   1.00
H2       0.66802    1.14955    0.63773   1.00
H2       0.67821    1.34098    0.63330   1.00
H2       0.66343    1.17725    0.59476   1.00
H2       0.63406    1.31494    0.63620   1.00
H2       0.64902    1.19745    0.63998   1.00
H2       0.67481    1.29385    0.61263   1.00
H2       0.56220    1.13042    0.65456   1.00
H2       0.67515    1.36383    0.52693   1.00
H2       0.60993    1.12025    0.67084   1.00
H2       0.70070    1.37149    0.57093   1.00
H2       0.59027    1.16739    0.67695   1.00
H2       0.70099    1.32502    0.54888   1.00
C4       0.26975    0.99590    0.49751   1.00
C4       0.22809    0.99576    0.49597   1.00
C3       0.29103    0.97532    0.52672   1.00
C3       0.20496    0.97183    0.52090   1.00
C3       0.29146    1.01734    0.46904   1.00
C3       0.20830    1.02026    0.46859   1.00
C2       0.35405    0.99460    0.49953   1.00
C2       0.14378    0.99686    0.49420   1.00
C3       0.33189    0.97448    0.52764   1.00
C3       0.16409    0.97246    0.52023   1.00
C3       0.33304    1.01555    0.47087   1.00
C3       0.16664    1.02020    0.46900   1.00
H1       0.27763    0.96049    0.54864   1.00
H1       0.21694    0.95276    0.54021   1.00
C5       0.27165    1.03994    0.43991   1.00
C5       0.23002    1.04378    0.44164   1.00
H1       0.34549    0.95897    0.54937   1.00
H1       0.14909    0.95461    0.53907   1.00
H1       0.34948    1.03019    0.45098   1.00
H1       0.15152    1.03743    0.45015   1.00
C6       0.29485    1.05905    0.40752   1.00
C6       0.20881    1.07261    0.41573   1.00
H2       0.31655    1.03845    0.39675   1.00
H2       0.18690    1.08789    0.43297   1.00
H2       0.27714    1.06382    0.38165   1.00
H2       0.22772    1.09646    0.40680   1.00
C6       0.31394    1.09871    0.42000   1.00
C6       0.19058    1.05334    0.37846   1.00
H2       0.32708    1.09561    0.44890   1.00
H2       0.17617    1.02604    0.38652   1.00
C6       0.34541    1.11667    0.39218   1.00
C6       0.16089    1.07820    0.35422   1.00
H2       0.29051    1.12002    0.42367   1.00
H2       0.21454    1.04482    0.35923   1.00
C6       0.38265    1.09100    0.39026   1.00
C6       0.12292    1.08630    0.37750   1.00
C6       0.32926    1.12266    0.35038   1.00
C6       0.17893    1.11747    0.34097   1.00
C6       0.35755    1.15720    0.40841   1.00
C6       0.14946    1.05484    0.31711   1.00
H2       0.39442    1.08569    0.41940   1.00
H2       0.10980    1.05915    0.38783   1.00
H2       0.37670    1.06281    0.37685   1.00
H2       0.12846    1.10471    0.40280   1.00
H2       0.40541    1.10506    0.37299   1.00
H2       0.10137    1.10127    0.35946   1.00
H2       0.35045    1.13773    0.33198   1.00
H2       0.15902    1.13330    0.32179   1.00
H2       0.32275    1.09476    0.33657   1.00
H2       0.18506    1.13620    0.36594   1.00
H2       0.30255    1.13998    0.35098   1.00
H2       0.20615    1.11263    0.32519   1.00
H2       0.36958    1.15456    0.43780   1.00
H2       0.13617    1.02693    0.32485   1.00
H2       0.37975    1.17084    0.39007   1.00
H2       0.12851    1.07093    0.29930   1.00
H2       0.33261    1.17695    0.40973   1.00
H2       0.17498    1.04888    0.29901   1.00
C4       0.73025    0.99590    0.50249   1.00
C4       0.77191    0.99576    0.50403   1.00
C3       0.70897    0.97532    0.47328   1.00
C3       0.79504    0.97183    0.47910   1.00
C3       0.70854    1.01734    0.53096   1.00
C3       0.79170    1.02026    0.53141   1.00
C2       0.64595    0.99460    0.50047   1.00
C2       0.85622    0.99686    0.50580   1.00
C3       0.66811    0.97448    0.47236   1.00
C3       0.83591    0.97246    0.47977   1.00
C3       0.66696    1.01555    0.52913   1.00
C3       0.83336    1.02020    0.53100   1.00
H1       0.72237    0.96049    0.45136   1.00
H1       0.78306    0.95276    0.45979   1.00
C5       0.72835    1.03994    0.56009   1.00
C5       0.76998    1.04378    0.55836   1.00
H1       0.65451    0.95897    0.45063   1.00
H1       0.85091    0.95461    0.46093   1.00
H1       0.65052    1.03019    0.54902   1.00
H1       0.84848    1.03743    0.54985   1.00
C6       0.70515    1.05905    0.59248   1.00
C6       0.79119    1.07261    0.58427   1.00
H2       0.68345    1.03845    0.60325   1.00
H2       0.81310    1.08789    0.56703   1.00
H2       0.72286    1.06382    0.61835   1.00
H2       0.77228    1.09646    0.59320   1.00
C6       0.68606    1.09871    0.58000   1.00
C6       0.80942    1.05334    0.62154   1.00
H2       0.67292    1.09561    0.55110   1.00
H2       0.82383    1.02604    0.61348   1.00
C6       0.65459    1.11667    0.60782   1.00
C6       0.83911    1.07820    0.64578   1.00
H2       0.70949    1.12002    0.57633   1.00
H2       0.78546    1.04482    0.64077   1.00
C6       0.61735    1.09100    0.60974   1.00
C6       0.87708    1.08630    0.62250   1.00
C6       0.67074    1.12266    0.64962   1.00
C6       0.82107    1.11747    0.65903   1.00
C6       0.64245    1.15720    0.59159   1.00
C6       0.85054    1.05484    0.68289   1.00
H2       0.60558    1.08569    0.58060   1.00
H2       0.89020    1.05915    0.61217   1.00
H2       0.62330    1.06281    0.62315   1.00
H2       0.87154    1.10471    0.59720   1.00
H2       0.59459    1.10506    0.62701   1.00
H2       0.89863    1.10127    0.64054   1.00
H2       0.64955    1.13773    0.66802   1.00
H2       0.84098    1.13330    0.67821   1.00
H2       0.67725    1.09476    0.66343   1.00
H2       0.81494    1.13620    0.63406   1.00
H2       0.69745    1.13998    0.64902   1.00
H2       0.79385    1.11263    0.67481   1.00
H2       0.63042    1.15456    0.56220   1.00
H2       0.86383    1.02693    0.67515   1.00
H2       0.62025    1.17084    0.60993   1.00
H2       0.87149    1.07093    0.70070   1.00
H2       0.66739    1.17695    0.59027   1.00
H2       0.82502    1.04888    0.70099   1.00
C4       0.49751    0.76975    0.49590   1.00
C4       0.49597    0.72809    0.49576   1.00
C3       0.52672    0.79103    0.47532   1.00
C3       0.52090    0.70496    0.47183   1.00
C3       0.46904    0.79146    0.51734   1.00
C3       0.46859    0.70830    0.52026   1.00
C2       0.49953    0.85405    0.49460   1.00
C2       0.49420    0.64378    0.49686   1.00
C3       0.52764    0.83189    0.47448   1.00
C3       0.52023    0.66409    0.47246   1.00
C3       0.47087    0.83304    0.51555   1.00
C3       0.46900    0.66664    0.52020   1.00
H1       0.54864    0.77763    0.46049   1.00
H1       0.54021    0.71694    0.45276   1.00
C5       0.43991    0.77165    0.53994   1.00
C5       0.44164    0.73002    0.54378   1.00
H1       0.54937    0.84549    0.45897   1.00
H1       0.53907    0.64909    0.45461   1.00
H1       0.45098    0.84948    0.53019   1.00
H1       0.45015    0.65152    0.53743   1.00
C6       0.40752    0.79485    0.55905   1.00
C6       0.41573    0.70881    0.57261   1.00
H2       0.39675    0.81655    0.53845   1.00
H2       0.43297    0.68690    0.58789   1.00
H2       0.38165    0.77714    0.56382   1.00
H2       0.40680    0.72772    0.59646   1.00
C6       0.42000    0.81394    0.59871   1.00
C6       0.37846    0.69058    0.55334   1.00
H2       0.44890    0.82708    0.59561   1.00
H2       0.38652    0.67617    0.52604   1.00
C6       0.39218    0.84541    0.61667   1.00
C6       0.35422    0.66089    0.57820   1.00
H2       0.42367    0.79051    0.62002   1.00
H2       0.35923    0.71454    0.54482   1.00
C6       0.39026    0.88265    0.59100   1.00
C6       0.37750    0.62292    0.58630   1.00
C6       0.35038    0.82926    0.62266   1.00
C6       0.34097    0.67893    0.61747   1.00
C6       0.40841    0.85755    0.65720   1.00
C6       0.31711    0.64946    0.55484   1.00
H2       0.41940    0.89442    0.58569   1.00
H2       0.38783    0.60980    0.55915   1.00
H2       0.37685    0.87670    0.56281   1.00
H2       0.40280    0.62846    0.60471   1.00
H2       0.37299    0.90541    0.60506   1.00
H2       0.35946    0.60137    0.60127   1.00
H2       0.33198    0.85045    0.63773   1.00
H2       0.32179    0.65902    0.63330   1.00
H2       0.33657    0.82275    0.59476   1.00
H2       0.36594    0.68506    0.63620   1.00
H2       0.35098    0.80255    0.63998   1.00
H2       0.32519    0.70615    0.61263   1.00
H2       0.43780    0.86958    0.65456   1.00
H2       0.32485    0.63617    0.52693   1.00
H2       0.39007    0.87975    0.67084   1.00
H2       0.29930    0.62851    0.57093   1.00
H2       0.40973    0.83261    0.67695   1.00
H2       0.29901    0.67498    0.54888   1.00
C4       0.49590    0.99751    0.26975   1.00
C4       0.49576    0.99597    0.22809   1.00
C3       0.47532    1.02672    0.29103   1.00
C3       0.47183    1.02090    0.20496   1.00
C3       0.51734    0.96904    0.29146   1.00
C3       0.52026    0.96859    0.20830   1.00
C2       0.49460    0.99953    0.35405   1.00
C2       0.49686    0.99420    0.14378   1.00
C3       0.47448    1.02764    0.33189   1.00
C3       0.47246    1.02023    0.16409   1.00
C3       0.51555    0.97087    0.33304   1.00
C3       0.52020    0.96900    0.16664   1.00
H1       0.46049    1.04864    0.27763   1.00
H1       0.45276    1.04021    0.21694   1.00
C5       0.53994    0.93991    0.27165   1.00
C5       0.54378    0.94164    0.23002   1.00
H1       0.45897    1.04937    0.34549   1.00
H1       0.45461    1.03907    0.14909   1.00
H1       0.53019    0.95098    0.34948   1.00
H1       0.53743    0.95015    0.15152   1.00
C6       0.55905    0.90752    0.29485   1.00
C6       0.57261    0.91573    0.20881   1.00
H2       0.53845    0.89675    0.31655   1.00
H2       0.58789    0.93297    0.18690   1.00
H2       0.56382    0.88165    0.27714   1.00
H2       0.59646    0.90680    0.22772   1.00
C6       0.59871    0.92000    0.31394   1.00
C6       0.55334    0.87846    0.19058   1.00
H2       0.59561    0.94890    0.32708   1.00
H2       0.52604    0.88652    0.17617   1.00
C6       0.61667    0.89218    0.34541   1.00
C6       0.57820    0.85422    0.16089   1.00
H2       0.62002    0.92367    0.29051   1.00
H2       0.54482    0.85923    0.21454   1.00
C6       0.59100    0.89026    0.38265   1.00
C6       0.58630    0.87750    0.12292   1.00
C6       0.62266    0.85038    0.32926   1.00
C6       0.61747    0.84097    0.17893   1.00
C6       0.65720    0.90841    0.35755   1.00
C6       0.55484    0.81711    0.14946   1.00
H2       0.58569    0.91940    0.39442   1.00
H2       0.55915    0.88783    0.10980   1.00
H2       0.56281    0.87685    0.37670   1.00
H2       0.60471    0.90280    0.12846   1.00
H2       0.60506    0.87299    0.40541   1.00
H2       0.60127    0.85946    0.10137   1.00
H2       0.63773    0.83198    0.35045   1.00
H2       0.63330    0.82179    0.15902   1.00
H2       0.59476    0.83657    0.32275   1.00
H2       0.63620    0.86594    0.18506   1.00
H2       0.63998    0.85098    0.30255   1.00
H2       0.61263    0.82519    0.20615   1.00
H2       0.65456    0.93780    0.36958   1.00
H2       0.52693    0.82485    0.13617   1.00
H2       0.67084    0.89007    0.37975   1.00
H2       0.57093    0.79930    0.12851   1.00
H2       0.67695    0.90973    0.33261   1.00
H2       0.54888    0.79901    0.17498   1.00
C4       0.99590    0.50249    0.73025   1.00
C4       0.99576    0.50403    0.77191   1.00
C3       0.97532    0.47328    0.70897   1.00
C3       0.97183    0.47910    0.79504   1.00
C3       1.01734    0.53096    0.70854   1.00
C3       1.02026    0.53141    0.79170   1.00
C2       0.99460    0.50047    0.64595   1.00
C2       0.99686    0.50580    0.85622   1.00
C3       0.97448    0.47236    0.66811   1.00
C3       0.97246    0.47977    0.83591   1.00
C3       1.01555    0.52913    0.66696   1.00
C3       1.02020    0.53100    0.83336   1.00
H1       0.96049    0.45136    0.72237   1.00
H1       0.95276    0.45979    0.78306   1.00
C5       1.03994    0.56009    0.72835   1.00
C5       1.04378    0.55836    0.76998   1.00
H1       0.95897    0.45063    0.65451   1.00
H1       0.95461    0.46093    0.85091   1.00
H1       1.03019    0.54902    0.65052   1.00
H1       1.03743    0.54985    0.84848   1.00
C6       1.05905    0.59248    0.70515   1.00
C6       1.07261    0.58427    0.79119   1.00
H2       1.03845    0.60325    0.68345   1.00
H2       1.08789    0.56703    0.81310   1.00
H2       1.06382    0.61835    0.72286   1.00
H2       1.09646    0.59320    0.77228   1.00
C6       1.09871    0.58000    0.68606   1.00
C6       1.05334    0.62154    0.80942   1.00
H2       1.09561    0.55110    0.67292   1.00
H2       1.02604    0.61348    0.82383   1.00
C6       1.11667    0.60782    0.65459   1.00
C6       1.07820    0.64578    0.83911   1.00
H2       1.12002    0.57633    0.70949   1.00
H2       1.04482    0.64077    0.78546   1.00
C6       1.09100    0.60974    0.61735   1.00
C6       1.08630    0.62250    0.87708   1.00
C6       1.12266    0.64962    0.67074   1.00
C6       1.11747    0.65903    0.82107   1.00
C6       1.15720    0.59159    0.64245   1.00
C6       1.05484    0.68289    0.85054   1.00
H2       1.08569    0.58060    0.60558   1.00
H2       1.05915    0.61217    0.89020   1.00
H2       1.06281    0.62315    0.62330   1.00
H2       1.10471    0.59720    0.87154   1.00
H2       1.10506    0.62701    0.59459   1.00
H2       1.10127    0.64054    0.89863   1.00
H2       1.13773    0.66802    0.64955   1.00
H2       1.13330    0.67821    0.84098   1.00
H2       1.09476    0.66343    0.67725   1.00
H2       1.13620    0.63406    0.81494   1.00
H2       1.13998    0.64902    0.69745   1.00
H2       1.11263    0.67481    0.79385   1.00
H2       1.15456    0.56220    0.63042   1.00
H2       1.02693    0.67515    0.86383   1.00
H2       1.17084    0.60993    0.62025   1.00
H2       1.07093    0.70070    0.87149   1.00
H2       1.17695    0.59027    0.66739   1.00
H2       1.04888    0.70099    0.82502   1.00
C4       1.00249    0.73025    0.49590   1.00
C4       1.00403    0.77191    0.49576   1.00
C3       0.97328    0.70897    0.47532   1.00
C3       0.97910    0.79504    0.47183   1.00
C3       1.03096    0.70854    0.51734   1.00
C3       1.03141    0.79170    0.52026   1.00
C2       1.00047    0.64595    0.49460   1.00
C2       1.00580    0.85622    0.49686   1.00
C3       0.97236    0.66811    0.47448   1.00
C3       0.97977    0.83591    0.47246   1.00
C3       1.02913    0.66696    0.51555   1.00
C3       1.03100    0.83336    0.52020   1.00
H1       0.95136    0.72237    0.46049   1.00
H1       0.95979    0.78306    0.45276   1.00
C5       1.06009    0.72835    0.53994   1.00
C5       1.05836    0.76998    0.54378   1.00
H1       0.95063    0.65451    0.45897   1.00
H1       0.96093    0.85091    0.45461   1.00
H1       1.04902    0.65052    0.53019   1.00
H1       1.04985    0.84848    0.53743   1.00
C6       1.09248    0.70515    0.55905   1.00
C6       1.08427    0.79119    0.57261   1.00
H2       1.10325    0.68345    0.53845   1.00
H2       1.06703    0.81310    0.58789   1.00
H2       1.11835    0.72286    0.56382   1.00
H2       1.09320    0.77228    0.59646   1.00
C6       1.08000    0.68606    0.59871   1.00
C6       1.12154    0.80942    0.55334   1.00
H2       1.05110    0.67292    0.59561   1.00
H2       1.11348    0.82383    0.52604   1.00
C6       1.10782    0.65459    0.61667   1.00
C6       1.14578    0.83911    0.57820   1.00
H2       1.07633    0.70949    0.62002   1.00
H2       1.14077    0.78546    0.54482   1.00
C6       1.10974    0.61735    0.59100   1.00
C6       1.12250    0.87708    0.58630   1.00
C6       1.14962    0.67074    0.62266   1.00
C6       1.15903    0.82107    0.61747   1.00
C6       1.09159    0.64245    0.65720   1.00
C6       1.18289    0.85054    0.55484   1.00
H2       1.08060    0.60558    0.58569   1.00
H2       1.11217    0.89020    0.55915   1.00
H2       1.12315    0.62330    0.56281   1.00
H2       1.09720    0.87154    0.60471   1.00
H2       1.12701    0.59459    0.60506   1.00
H2       1.14054    0.89863    0.60127   1.00
H2       1.16802    0.64955    0.63773   1.00
H2       1.17821    0.84098    0.63330   1.00
H2       1.16343    0.67725    0.59476   1.00
H2       1.13406    0.81494    0.63620   1.00
H2       1.14902    0.69745    0.63998   1.00
H2       1.17481    0.79385    0.61263   1.00
H2       1.06220    0.63042    0.65456   1.00
H2       1.17515    0.86383    0.52693   1.00
H2       1.10993    0.62025    0.67084   1.00
H2       1.20070    0.87149    0.57093   1.00
H2       1.09027    0.66739    0.67695   1.00
H2       1.20099    0.82502    0.54888   1.00
C4       0.76975    0.49590    0.49751   1.00
C4       0.72809    0.49576    0.49597   1.00
C3       0.79103    0.47532    0.52672   1.00
C3       0.70496    0.47183    0.52090   1.00
C3       0.79146    0.51734    0.46904   1.00
C3       0.70830    0.52026    0.46859   1.00
C2       0.85405    0.49460    0.49953   1.00
C2       0.64378    0.49686    0.49420   1.00
C3       0.83189    0.47448    0.52764   1.00
C3       0.66409    0.47246    0.52023   1.00
C3       0.83304    0.51555    0.47087   1.00
C3       0.66664    0.52020    0.46900   1.00
H1       0.77763    0.46049    0.54864   1.00
H1       0.71694    0.45276    0.54021   1.00
C5       0.77165    0.53994    0.43991   1.00
C5       0.73002    0.54378    0.44164   1.00
H1       0.84549    0.45897    0.54937   1.00
H1       0.64909    0.45461    0.53907   1.00
H1       0.84948    0.53019    0.45098   1.00
H1       0.65152    0.53743    0.45015   1.00
C6       0.79485    0.55905    0.40752   1.00
C6       0.70881    0.57261    0.41573   1.00
H2       0.81655    0.53845    0.39675   1.00
H2       0.68690    0.58789    0.43297   1.00
H2       0.77714    0.56382    0.38165   1.00
H2       0.72772    0.59646    0.40680   1.00
C6       0.81394    0.59871    0.42000   1.00
C6       0.69058    0.55334    0.37846   1.00
H2       0.82708    0.59561    0.44890   1.00
H2       0.67617    0.52604    0.38652   1.00
C6       0.84541    0.61667    0.39218   1.00
C6       0.66089    0.57820    0.35422   1.00
H2       0.79051    0.62002    0.42367   1.00
H2       0.71454    0.54482    0.35923   1.00
C6       0.88265    0.59100    0.39026   1.00
C6       0.62292    0.58630    0.37750   1.00
C6       0.82926    0.62266    0.35038   1.00
C6       0.67893    0.61747    0.34097   1.00
C6       0.85755    0.65720    0.40841   1.00
C6       0.64946    0.55484    0.31711   1.00
H2       0.89442    0.58569    0.41940   1.00
H2       0.60980    0.55915    0.38783   1.00
H2       0.87670    0.56281    0.37685   1.00
H2       0.62846    0.60471    0.40280   1.00
H2       0.90541    0.60506    0.37299   1.00
H2       0.60137    0.60127    0.35946   1.00
H2       0.85045    0.63773    0.33198   1.00
H2       0.65902    0.63330    0.32179   1.00
H2       0.82275    0.59476    0.33657   1.00
H2       0.68506    0.63620    0.36594   1.00
H2       0.80255    0.63998    0.35098   1.00
H2       0.70615    0.61263    0.32519   1.00
H2       0.86958    0.65456    0.43780   1.00
H2       0.63617    0.52693    0.32485   1.00
H2       0.87975    0.67084    0.39007   1.00
H2       0.62851    0.57093    0.29930   1.00
H2       0.83261    0.67695    0.40973   1.00
H2       0.67498    0.54888    0.29901   1.00
C4       1.23025    0.49590    0.50249   1.00
C4       1.27191    0.49576    0.50403   1.00
C3       1.20897    0.47532    0.47328   1.00
C3       1.29504    0.47183    0.47910   1.00
C3       1.20854    0.51734    0.53096   1.00
C3       1.29170    0.52026    0.53141   1.00
C2       1.14595    0.49460    0.50047   1.00
C2       1.35622    0.49686    0.50580   1.00
C3       1.16811    0.47448    0.47236   1.00
C3       1.33591    0.47246    0.47977   1.00
C3       1.16696    0.51555    0.52913   1.00
C3       1.33336    0.52020    0.53100   1.00
H1       1.22237    0.46049    0.45136   1.00
H1       1.28306    0.45276    0.45979   1.00
C5       1.22835    0.53994    0.56009   1.00
C5       1.26998    0.54378    0.55836   1.00
H1       1.15451    0.45897    0.45063   1.00
H1       1.35091    0.45461    0.46093   1.00
H1       1.15052    0.53019    0.54902   1.00
H1       1.34848    0.53743    0.54985   1.00
C6       1.20515    0.55905    0.59248   1.00
C6       1.29119    0.57261    0.58427   1.00
H2       1.18345    0.53845    0.60325   1.00
H2       1.31310    0.58789    0.56703   1.00
H2       1.22286    0.56382    0.61835   1.00
H2       1.27228    0.59646    0.59320   1.00
C6       1.18606    0.59871    0.58000   1.00
C6       1.30942    0.55334    0.62154   1.00
H2       1.17292    0.59561    0.55110   1.00
H2       1.32383    0.52604    0.61348   1.00
C6       1.15459    0.61667    0.60782   1.00
C6       1.33911    0.57820    0.64578   1.00
H2       1.20949    0.62002    0.57633   1.00
H2       1.28546    0.54482    0.64077   1.00
C6       1.11735    0.59100    0.60974   1.00
C6       1.37708    0.58630    0.62250   1.00
C6       1.17074    0.62266    0.64962   1.00
C6       1.32107    0.61747    0.65903   1.00
C6       1.14245    0.65720    0.59159   1.00
C6       1.35054    0.55484    0.68289   1.00
H2       1.10558    0.58569    0.58060   1.00
H2       1.39020    0.55915    0.61217   1.00
H2       1.12330    0.56281    0.62315   1.00
H2       1.37154    0.60471    0.59720   1.00
H2       1.09459    0.60506    0.62701   1.00
H2       1.39863    0.60127    0.64054   1.00
H2       1.14955    0.63773    0.66802   1.00
H2       1.34098    0.63330    0.67821   1.00
H2       1.17725    0.59476    0.66343   1.00
H2       1.31494    0.63620    0.63406   1.00
H2       1.19745    0.63998    0.64902   1.00
H2       1.29385    0.61263    0.67481   1.00
H2       1.13042    0.65456    0.56220   1.00
H2       1.36383    0.52693    0.67515   1.00
H2       1.12025    0.67084    0.60993   1.00
H2       1.37149    0.57093    0.70070   1.00
H2       1.16739    0.67695    0.59027   1.00
H2       1.32502    0.54888    0.70099   1.00
C4       0.99751    0.26975    0.49590   1.00
C4       0.99597    0.22809    0.49576   1.00
C3       1.02672    0.29103    0.47532   1.00
C3       1.02090    0.20496    0.47183   1.00
C3       0.96904    0.29146    0.51734   1.00
C3       0.96859    0.20830    0.52026   1.00
C2       0.99953    0.35405    0.49460   1.00
C2       0.99420    0.14378    0.49686   1.00
C3       1.02764    0.33189    0.47448   1.00
C3       1.02023    0.16409    0.47246   1.00
C3       0.97087    0.33304    0.51555   1.00
C3       0.96900    0.16664    0.52020   1.00
H1       1.04864    0.27763    0.46049   1.00
H1       1.04021    0.21694    0.45276   1.00
C5       0.93991    0.27165    0.53994   1.00
C5       0.94164    0.23002    0.54378   1.00
H1       1.04937    0.34549    0.45897   1.00
H1       1.03907    0.14909    0.45461   1.00
H1       0.95098    0.34948    0.53019   1.00
H1       0.95015    0.15152    0.53743   1.00
C6       0.90752    0.29485    0.55905   1.00
C6       0.91573    0.20881    0.57261   1.00
H2       0.89675    0.31655    0.53845   1.00
H2       0.93297    0.18690    0.58789   1.00
H2       0.88165    0.27714    0.56382   1.00
H2       0.90680    0.22772    0.59646   1.00
C6       0.92000    0.31394    0.59871   1.00
C6       0.87846    0.19058    0.55334   1.00
H2       0.94890    0.32708    0.59561   1.00
H2       0.88652    0.17617    0.52604   1.00
C6       0.89218    0.34541    0.61667   1.00
C6       0.85422    0.16089    0.57820   1.00
H2       0.92367    0.29051    0.62002   1.00
H2       0.85923    0.21454    0.54482   1.00
C6       0.89026    0.38265    0.59100   1.00
C6       0.87750    0.12292    0.58630   1.00
C6       0.85038    0.32926    0.62266   1.00
C6       0.84097    0.17893    0.61747   1.00
C6       0.90841    0.35755    0.65720   1.00
C6       0.81711    0.14946    0.55484   1.00
H2       0.91940    0.39442    0.58569   1.00
H2       0.88783    0.10980    0.55915   1.00
H2       0.87685    0.37670    0.56281   1.00
H2       0.90280    0.12846    0.60471   1.00
H2       0.87299    0.40541    0.60506   1.00
H2       0.85946    0.10137    0.60127   1.00
H2       0.83198    0.35045    0.63773   1.00
H2       0.82179    0.15902    0.63330   1.00
H2       0.83657    0.32275    0.59476   1.00
H2       0.86594    0.18506    0.63620   1.00
H2       0.85098    0.30255    0.63998   1.00
H2       0.82519    0.20615    0.61263   1.00
H2       0.93780    0.36958    0.65456   1.00
H2       0.82485    0.13617    0.52693   1.00
H2       0.89007    0.37975    0.67084   1.00
H2       0.79930    0.12851    0.57093   1.00
H2       0.90973    0.33261    0.67695   1.00
H2       0.79901    0.17498    0.54888   1.00
C4       0.99590    0.49751    0.26975   1.00
C4       0.99576    0.49597    0.22809   1.00
C3       0.97532    0.52672    0.29103   1.00
C3       0.97183    0.52090    0.20496   1.00
C3       1.01734    0.46904    0.29146   1.00
C3       1.02026    0.46859    0.20830   1.00
C2       0.99460    0.49953    0.35405   1.00
C2       0.99686    0.49420    0.14378   1.00
C3       0.97448    0.52764    0.33189   1.00
C3       0.97246    0.52023    0.16409   1.00
C3       1.01555    0.47087    0.33304   1.00
C3       1.02020    0.46900    0.16664   1.00
H1       0.96049    0.54864    0.27763   1.00
H1       0.95276    0.54021    0.21694   1.00
C5       1.03994    0.43991    0.27165   1.00
C5       1.04378    0.44164    0.23002   1.00
H1       0.95897    0.54937    0.34549   1.00
H1       0.95461    0.53907    0.14909   1.00
H1       1.03019    0.45098    0.34948   1.00
H1       1.03743    0.45015    0.15152   1.00
C6       1.05905    0.40752    0.29485   1.00
C6       1.07261    0.41573    0.20881   1.00
H2       1.03845    0.39675    0.31655   1.00
H2       1.08789    0.43297    0.18690   1.00
H2       1.06382    0.38165    0.27714   1.00
H2       1.09646    0.40680    0.22772   1.00
C6       1.09871    0.42000    0.31394   1.00
C6       1.05334    0.37846    0.19058   1.00
H2       1.09561    0.44890    0.32708   1.00
H2       1.02604    0.38652    0.17617   1.00
C6       1.11667    0.39218    0.34541   1.00
C6       1.07820    0.35422    0.16089   1.00
H2       1.12002    0.42367    0.29051   1.00
H2       1.04482    0.35923    0.21454   1.00
C6       1.09100    0.39026    0.38265   1.00
C6       1.08630    0.37750    0.12292   1.00
C6       1.12266    0.35038    0.32926   1.00
C6       1.11747    0.34097    0.17893   1.00
C6       1.15720    0.40841    0.35755   1.00
C6       1.05484    0.31711    0.14946   1.00
H2       1.08569    0.41940    0.39442   1.00
H2       1.05915    0.38783    0.10980   1.00
H2       1.06281    0.37685    0.37670   1.00
H2       1.10471    0.40280    0.12846   1.00
H2       1.10506    0.37299    0.40541   1.00
H2       1.10127    0.35946    0.10137   1.00
H2       1.13773    0.33198    0.35045   1.00
H2       1.13330    0.32179    0.15902   1.00
H2       1.09476    0.33657    0.32275   1.00
H2       1.13620    0.36594    0.18506   1.00
H2       1.13998    0.35098    0.30255   1.00
H2       1.11263    0.32519    0.20615   1.00
H2       1.15456    0.43780    0.36958   1.00
H2       1.02693    0.32485    0.13617   1.00
H2       1.17084    0.39007    0.37975   1.00
H2       1.07093    0.29930    0.12851   1.00
H2       1.17695    0.40973    0.33261   1.00
H2       1.04888    0.29901    0.17498   1.00
