data_IRMOF10_SG202_interpen_Ligand1lp_label_a.

_audit_creation_method             'generated by an auxiliary program of Tobunporous'

_symmetry_space_group_name_H-M     'P 1'
_symmetry_Int_Tables_number        1
_symmetry_cell_setting             triclinic

_cell_length_a                    34.2800
_cell_length_b                    34.2800
_cell_length_c                    34.2800
_cell_angle_alpha                 90.0000
_cell_angle_beta                  90.0000
_cell_angle_gamma                 90.0000

loop_
_atom_site_label
_atom_site_fract_x
_atom_site_fract_y
_atom_site_fract_z
_atom_site_occupancy
O1       0.75000    0.75000    0.75000   1.00
Zn1      0.71720    0.78280    0.78280   1.00
Zn1      0.78280    0.71720    0.78280   1.00
Zn1      0.78280    0.78280    0.71720   1.00
Zn1      0.71720    0.71720    0.71720   1.00
O2       0.72650    0.77350    0.83820   1.00
O2       0.72650    0.83820    0.77350   1.00
O2       0.66180    0.77350    0.77350   1.00
O2       0.77350    0.72650    0.83820   1.00
O2       0.83820    0.72650    0.77350   1.00
O2       0.77350    0.66180    0.77350   1.00
O2       0.77350    0.83820    0.72650   1.00
O2       0.83820    0.77350    0.72650   1.00
O2       0.77350    0.77350    0.66180   1.00
O2       0.66180    0.72650    0.72650   1.00
O2       0.72650    0.66180    0.72650   1.00
O2       0.72650    0.72650    0.66180   1.00
C1       0.75000    0.75000    0.85520   1.00
C1       0.75000    0.85520    0.75000   1.00
C1       0.64480    0.75000    0.75000   1.00
C1       0.85520    0.75000    0.75000   1.00
C1       0.75000    0.64480    0.75000   1.00
C1       0.75000    0.75000    0.64480   1.00
O1       0.25000    0.25000    0.75000   1.00
Zn1      0.21720    0.28280    0.78280   1.00
Zn1      0.28280    0.21720    0.78280   1.00
Zn1      0.28280    0.28280    0.71720   1.00
Zn1      0.21720    0.21720    0.71720   1.00
O2       0.22650    0.27350    0.83820   1.00
O2       0.22650    0.33820    0.77350   1.00
O2       0.16180    0.27350    0.77350   1.00
O2       0.27350    0.22650    0.83820   1.00
O2       0.33820    0.22650    0.77350   1.00
O2       0.27350    0.16180    0.77350   1.00
O2       0.27350    0.33820    0.72650   1.00
O2       0.33820    0.27350    0.72650   1.00
O2       0.27350    0.27350    0.66180   1.00
O2       0.16180    0.22650    0.72650   1.00
O2       0.22650    0.16180    0.72650   1.00
O2       0.22650    0.22650    0.66180   1.00
C1       0.25000    0.25000    0.85520   1.00
C1       0.25000    0.35520    0.75000   1.00
C1       0.14480    0.25000    0.75000   1.00
C1       0.35520    0.25000    0.75000   1.00
C1       0.25000    0.14480    0.75000   1.00
C1       0.25000    0.25000    0.64480   1.00
O1       0.25000    0.75000    0.25000   1.00
Zn1      0.21720    0.78280    0.28280   1.00
Zn1      0.28280    0.71720    0.28280   1.00
Zn1      0.28280    0.78280    0.21720   1.00
Zn1      0.21720    0.71720    0.21720   1.00
O2       0.22650    0.77350    0.33820   1.00
O2       0.22650    0.83820    0.27350   1.00
O2       0.16180    0.77350    0.27350   1.00
O2       0.27350    0.72650    0.33820   1.00
O2       0.33820    0.72650    0.27350   1.00
O2       0.27350    0.66180    0.27350   1.00
O2       0.27350    0.83820    0.22650   1.00
O2       0.33820    0.77350    0.22650   1.00
O2       0.27350    0.77350    0.16180   1.00
O2       0.16180    0.72650    0.22650   1.00
O2       0.22650    0.66180    0.22650   1.00
O2       0.22650    0.72650    0.16180   1.00
C1       0.25000    0.75000    0.35520   1.00
C1       0.25000    0.85520    0.25000   1.00
C1       0.14480    0.75000    0.25000   1.00
C1       0.35520    0.75000    0.25000   1.00
C1       0.25000    0.64480    0.25000   1.00
C1       0.25000    0.75000    0.14480   1.00
O1       0.75000    0.25000    0.25000   1.00
Zn1      0.71720    0.28280    0.28280   1.00
Zn1      0.78280    0.21720    0.28280   1.00
Zn1      0.78280    0.28280    0.21720   1.00
Zn1      0.71720    0.21720    0.21720   1.00
O2       0.72650    0.27350    0.33820   1.00
O2       0.72650    0.33820    0.27350   1.00
O2       0.66180    0.27350    0.27350   1.00
O2       0.77350    0.22650    0.33820   1.00
O2       0.83820    0.22650    0.27350   1.00
O2       0.77350    0.16180    0.27350   1.00
O2       0.77350    0.33820    0.22650   1.00
O2       0.83820    0.27350    0.22650   1.00
O2       0.77350    0.27350    0.16180   1.00
O2       0.66180    0.22650    0.22650   1.00
O2       0.72650    0.16180    0.22650   1.00
O2       0.72650    0.22650    0.16180   1.00
C1       0.75000    0.25000    0.35520   1.00
C1       0.75000    0.35520    0.25000   1.00
C1       0.64480    0.25000    0.25000   1.00
C1       0.85520    0.25000    0.25000   1.00
C1       0.75000    0.14480    0.25000   1.00
C1       0.75000    0.25000    0.14480   1.00
O1       0.25000    0.25000    0.25000   1.00
Zn1      0.28280    0.21720    0.21720   1.00
Zn1      0.21720    0.28280    0.21720   1.00
Zn1      0.21720    0.21720    0.28280   1.00
Zn1      0.28280    0.28280    0.28280   1.00
O2       0.27350    0.22650    0.16180   1.00
O2       0.27350    0.16180    0.22650   1.00
O2       0.33820    0.22650    0.22650   1.00
O2       0.22650    0.27350    0.16180   1.00
O2       0.16180    0.27350    0.22650   1.00
O2       0.22650    0.33820    0.22650   1.00
O2       0.22650    0.16180    0.27350   1.00
O2       0.16180    0.22650    0.27350   1.00
O2       0.22650    0.22650    0.33820   1.00
O2       0.33820    0.27350    0.27350   1.00
O2       0.27350    0.33820    0.27350   1.00
O2       0.27350    0.27350    0.33820   1.00
C1       0.25000    0.25000    0.14480   1.00
C1       0.25000    0.14480    0.25000   1.00
C1       0.35520    0.25000    0.25000   1.00
C1       0.14480    0.25000    0.25000   1.00
C1       0.25000    0.35520    0.25000   1.00
C1       0.25000    0.25000    0.35520   1.00
O1       0.75000    0.75000    0.25000   1.00
Zn1      0.78280    0.71720    0.21720   1.00
Zn1      0.71720    0.78280    0.21720   1.00
Zn1      0.71720    0.71720    0.28280   1.00
Zn1      0.78280    0.78280    0.28280   1.00
O2       0.77350    0.72650    0.16180   1.00
O2       0.77350    0.66180    0.22650   1.00
O2       0.83820    0.72650    0.22650   1.00
O2       0.72650    0.77350    0.16180   1.00
O2       0.66180    0.77350    0.22650   1.00
O2       0.72650    0.83820    0.22650   1.00
O2       0.72650    0.66180    0.27350   1.00
O2       0.66180    0.72650    0.27350   1.00
O2       0.72650    0.72650    0.33820   1.00
O2       0.83820    0.77350    0.27350   1.00
O2       0.77350    0.83820    0.27350   1.00
O2       0.77350    0.77350    0.33820   1.00
C1       0.75000    0.75000    0.14480   1.00
C1       0.75000    0.64480    0.25000   1.00
C1       0.85520    0.75000    0.25000   1.00
C1       0.64480    0.75000    0.25000   1.00
C1       0.75000    0.85520    0.25000   1.00
C1       0.75000    0.75000    0.35520   1.00
O1       0.75000    0.25000    0.75000   1.00
Zn1      0.78280    0.21720    0.71720   1.00
Zn1      0.71720    0.28280    0.71720   1.00
Zn1      0.71720    0.21720    0.78280   1.00
Zn1      0.78280    0.28280    0.78280   1.00
O2       0.77350    0.22650    0.66180   1.00
O2       0.77350    0.16180    0.72650   1.00
O2       0.83820    0.22650    0.72650   1.00
O2       0.72650    0.27350    0.66180   1.00
O2       0.66180    0.27350    0.72650   1.00
O2       0.72650    0.33820    0.72650   1.00
O2       0.72650    0.16180    0.77350   1.00
O2       0.66180    0.22650    0.77350   1.00
O2       0.72650    0.22650    0.83820   1.00
O2       0.83820    0.27350    0.77350   1.00
O2       0.77350    0.33820    0.77350   1.00
O2       0.77350    0.27350    0.83820   1.00
C1       0.75000    0.25000    0.64480   1.00
C1       0.75000    0.14480    0.75000   1.00
C1       0.85520    0.25000    0.75000   1.00
C1       0.64480    0.25000    0.75000   1.00
C1       0.75000    0.35520    0.75000   1.00
C1       0.75000    0.25000    0.85520   1.00
O1       0.25000    0.75000    0.75000   1.00
Zn1      0.28280    0.71720    0.71720   1.00
Zn1      0.21720    0.78280    0.71720   1.00
Zn1      0.21720    0.71720    0.78280   1.00
Zn1      0.28280    0.78280    0.78280   1.00
O2       0.27350    0.72650    0.66180   1.00
O2       0.27350    0.66180    0.72650   1.00
O2       0.33820    0.72650    0.72650   1.00
O2       0.22650    0.77350    0.66180   1.00
O2       0.16180    0.77350    0.72650   1.00
O2       0.22650    0.83820    0.72650   1.00
O2       0.22650    0.66180    0.77350   1.00
O2       0.16180    0.72650    0.77350   1.00
O2       0.22650    0.72650    0.83820   1.00
O2       0.33820    0.77350    0.77350   1.00
O2       0.27350    0.83820    0.77350   1.00
O2       0.27350    0.77350    0.83820   1.00
C1       0.25000    0.75000    0.64480   1.00
C1       0.25000    0.64480    0.75000   1.00
C1       0.35520    0.75000    0.75000   1.00
C1       0.14480    0.75000    0.75000   1.00
C1       0.25000    0.85520    0.75000   1.00
C1       0.25000    0.75000    0.85520   1.00
O1       1.00000    1.00000    1.00000   1.00
Zn1      0.96720    1.03280    1.03280   1.00
Zn1      1.03280    0.96720    1.03280   1.00
Zn1      1.03280    1.03280    0.96720   1.00
Zn1      0.96720    0.96720    0.96720   1.00
O2       0.97650    1.02350    1.08820   1.00
O2       0.97650    1.08820    1.02350   1.00
O2       0.91180    1.02350    1.02350   1.00
O2       1.02350    0.97650    1.08820   1.00
O2       1.08820    0.97650    1.02350   1.00
O2       1.02350    0.91180    1.02350   1.00
O2       1.02350    1.08820    0.97650   1.00
O2       1.08820    1.02350    0.97650   1.00
O2       1.02350    1.02350    0.91180   1.00
O2       0.91180    0.97650    0.97650   1.00
O2       0.97650    0.91180    0.97650   1.00
O2       0.97650    0.97650    0.91180   1.00
C1       1.00000    1.00000    1.10520   1.00
C1       1.00000    1.10520    1.00000   1.00
C1       0.89480    1.00000    1.00000   1.00
C1       1.10520    1.00000    1.00000   1.00
C1       1.00000    0.89480    1.00000   1.00
C1       1.00000    1.00000    0.89480   1.00
O1       0.50000    0.50000    1.00000   1.00
Zn1      0.46720    0.53280    1.03280   1.00
Zn1      0.53280    0.46720    1.03280   1.00
Zn1      0.53280    0.53280    0.96720   1.00
Zn1      0.46720    0.46720    0.96720   1.00
O2       0.47650    0.52350    1.08820   1.00
O2       0.47650    0.58820    1.02350   1.00
O2       0.41180    0.52350    1.02350   1.00
O2       0.52350    0.47650    1.08820   1.00
O2       0.58820    0.47650    1.02350   1.00
O2       0.52350    0.41180    1.02350   1.00
O2       0.52350    0.58820    0.97650   1.00
O2       0.58820    0.52350    0.97650   1.00
O2       0.52350    0.52350    0.91180   1.00
O2       0.41180    0.47650    0.97650   1.00
O2       0.47650    0.41180    0.97650   1.00
O2       0.47650    0.47650    0.91180   1.00
C1       0.50000    0.50000    1.10520   1.00
C1       0.50000    0.60520    1.00000   1.00
C1       0.39480    0.50000    1.00000   1.00
C1       0.60520    0.50000    1.00000   1.00
C1       0.50000    0.39480    1.00000   1.00
C1       0.50000    0.50000    0.89480   1.00
O1       0.50000    1.00000    0.50000   1.00
Zn1      0.46720    1.03280    0.53280   1.00
Zn1      0.53280    0.96720    0.53280   1.00
Zn1      0.53280    1.03280    0.46720   1.00
Zn1      0.46720    0.96720    0.46720   1.00
O2       0.47650    1.02350    0.58820   1.00
O2       0.47650    1.08820    0.52350   1.00
O2       0.41180    1.02350    0.52350   1.00
O2       0.52350    0.97650    0.58820   1.00
O2       0.58820    0.97650    0.52350   1.00
O2       0.52350    0.91180    0.52350   1.00
O2       0.52350    1.08820    0.47650   1.00
O2       0.58820    1.02350    0.47650   1.00
O2       0.52350    1.02350    0.41180   1.00
O2       0.41180    0.97650    0.47650   1.00
O2       0.47650    0.91180    0.47650   1.00
O2       0.47650    0.97650    0.41180   1.00
C1       0.50000    1.00000    0.60520   1.00
C1       0.50000    1.10520    0.50000   1.00
C1       0.39480    1.00000    0.50000   1.00
C1       0.60520    1.00000    0.50000   1.00
C1       0.50000    0.89480    0.50000   1.00
C1       0.50000    1.00000    0.39480   1.00
O1       1.00000    0.50000    0.50000   1.00
Zn1      0.96720    0.53280    0.53280   1.00
Zn1      1.03280    0.46720    0.53280   1.00
Zn1      1.03280    0.53280    0.46720   1.00
Zn1      0.96720    0.46720    0.46720   1.00
O2       0.97650    0.52350    0.58820   1.00
O2       0.97650    0.58820    0.52350   1.00
O2       0.91180    0.52350    0.52350   1.00
O2       1.02350    0.47650    0.58820   1.00
O2       1.08820    0.47650    0.52350   1.00
O2       1.02350    0.41180    0.52350   1.00
O2       1.02350    0.58820    0.47650   1.00
O2       1.08820    0.52350    0.47650   1.00
O2       1.02350    0.52350    0.41180   1.00
O2       0.91180    0.47650    0.47650   1.00
O2       0.97650    0.41180    0.47650   1.00
O2       0.97650    0.47650    0.41180   1.00
C1       1.00000    0.50000    0.60520   1.00
C1       1.00000    0.60520    0.50000   1.00
C1       0.89480    0.50000    0.50000   1.00
C1       1.10520    0.50000    0.50000   1.00
C1       1.00000    0.39480    0.50000   1.00
C1       1.00000    0.50000    0.39480   1.00
O1       0.50000    0.50000    0.50000   1.00
Zn1      0.53280    0.46720    0.46720   1.00
Zn1      0.46720    0.53280    0.46720   1.00
Zn1      0.46720    0.46720    0.53280   1.00
Zn1      0.53280    0.53280    0.53280   1.00
O2       0.52350    0.47650    0.41180   1.00
O2       0.52350    0.41180    0.47650   1.00
O2       0.58820    0.47650    0.47650   1.00
O2       0.47650    0.52350    0.41180   1.00
O2       0.41180    0.52350    0.47650   1.00
O2       0.47650    0.58820    0.47650   1.00
O2       0.47650    0.41180    0.52350   1.00
O2       0.41180    0.47650    0.52350   1.00
O2       0.47650    0.47650    0.58820   1.00
O2       0.58820    0.52350    0.52350   1.00
O2       0.52350    0.58820    0.52350   1.00
O2       0.52350    0.52350    0.58820   1.00
C1       0.50000    0.50000    0.39480   1.00
C1       0.50000    0.39480    0.50000   1.00
C1       0.60520    0.50000    0.50000   1.00
C1       0.39480    0.50000    0.50000   1.00
C1       0.50000    0.60520    0.50000   1.00
C1       0.50000    0.50000    0.60520   1.00
O1       1.00000    1.00000    0.50000   1.00
Zn1      1.03280    0.96720    0.46720   1.00
Zn1      0.96720    1.03280    0.46720   1.00
Zn1      0.96720    0.96720    0.53280   1.00
Zn1      1.03280    1.03280    0.53280   1.00
O2       1.02350    0.97650    0.41180   1.00
O2       1.02350    0.91180    0.47650   1.00
O2       1.08820    0.97650    0.47650   1.00
O2       0.97650    1.02350    0.41180   1.00
O2       0.91180    1.02350    0.47650   1.00
O2       0.97650    1.08820    0.47650   1.00
O2       0.97650    0.91180    0.52350   1.00
O2       0.91180    0.97650    0.52350   1.00
O2       0.97650    0.97650    0.58820   1.00
O2       1.08820    1.02350    0.52350   1.00
O2       1.02350    1.08820    0.52350   1.00
O2       1.02350    1.02350    0.58820   1.00
C1       1.00000    1.00000    0.39480   1.00
C1       1.00000    0.89480    0.50000   1.00
C1       1.10520    1.00000    0.50000   1.00
C1       0.89480    1.00000    0.50000   1.00
C1       1.00000    1.10520    0.50000   1.00
C1       1.00000    1.00000    0.60520   1.00
O1       1.00000    0.50000    1.00000   1.00
Zn1      1.03280    0.46720    0.96720   1.00
Zn1      0.96720    0.53280    0.96720   1.00
Zn1      0.96720    0.46720    1.03280   1.00
Zn1      1.03280    0.53280    1.03280   1.00
O2       1.02350    0.47650    0.91180   1.00
O2       1.02350    0.41180    0.97650   1.00
O2       1.08820    0.47650    0.97650   1.00
O2       0.97650    0.52350    0.91180   1.00
O2       0.91180    0.52350    0.97650   1.00
O2       0.97650    0.58820    0.97650   1.00
O2       0.97650    0.41180    1.02350   1.00
O2       0.91180    0.47650    1.02350   1.00
O2       0.97650    0.47650    1.08820   1.00
O2       1.08820    0.52350    1.02350   1.00
O2       1.02350    0.58820    1.02350   1.00
O2       1.02350    0.52350    1.08820   1.00
C1       1.00000    0.50000    0.89480   1.00
C1       1.00000    0.39480    1.00000   1.00
C1       1.10520    0.50000    1.00000   1.00
C1       0.89480    0.50000    1.00000   1.00
C1       1.00000    0.60520    1.00000   1.00
C1       1.00000    0.50000    1.10520   1.00
O1       0.50000    1.00000    1.00000   1.00
Zn1      0.53280    0.96720    0.96720   1.00
Zn1      0.46720    1.03280    0.96720   1.00
Zn1      0.46720    0.96720    1.03280   1.00
Zn1      0.53280    1.03280    1.03280   1.00
O2       0.52350    0.97650    0.91180   1.00
O2       0.52350    0.91180    0.97650   1.00
O2       0.58820    0.97650    0.97650   1.00
O2       0.47650    1.02350    0.91180   1.00
O2       0.41180    1.02350    0.97650   1.00
O2       0.47650    1.08820    0.97650   1.00
O2       0.47650    0.91180    1.02350   1.00
O2       0.41180    0.97650    1.02350   1.00
O2       0.47650    0.97650    1.08820   1.00
O2       0.58820    1.02350    1.02350   1.00
O2       0.52350    1.08820    1.02350   1.00
O2       0.52350    1.02350    1.08820   1.00
C1       0.50000    1.00000    0.89480   1.00
C1       0.50000    0.89480    1.00000   1.00
C1       0.60520    1.00000    1.00000   1.00
C1       0.39480    1.00000    1.00000   1.00
C1       0.50000    1.10520    1.00000   1.00
C1       0.50000    1.00000    1.10520   1.00
C2       0.74713    0.75083    0.89757   1.00
C3a      0.72293    0.77600    0.91884   1.00
H1       0.70335    0.79570    0.90369   1.00
C3a      0.77247    0.72533    0.91704   1.00
H1       0.79116    0.70588    0.90051   1.00
C3b      0.72379    0.77595    0.95938   1.00
C5       0.69739    0.80339    0.98144   1.00
H2       0.71502    0.82334    0.99984   1.00
H2       0.67927    0.82150    0.96161   1.00
H2       0.67744    0.78658    1.00060   1.00
C3b      0.77388    0.72472    0.95756   1.00
C5       0.80147    0.69694    0.97767   1.00
H2       0.78489    0.67669    0.99670   1.00
H2       0.81843    0.67916    0.95655   1.00
H2       0.82246    0.71345    0.99594   1.00
C4       0.74940    0.75017    0.97873   1.00
C4       0.75060    0.74983    1.02127   1.00
C3b      0.77678    0.77472    1.04101   1.00
C5       0.80379    0.80191    1.01937   1.00
H2       0.78662    0.82253    1.00129   1.00
H2       0.82230    0.81929    1.03949   1.00
H2       0.82336    0.78495    0.99995   1.00
C3b      0.72555    0.72461    1.04204   1.00
C5       0.69735    0.69776    1.02152   1.00
H2       0.71348    0.67744    1.00217   1.00
H2       0.67999    0.68005    1.04235   1.00
H2       0.67674    0.71502    1.00350   1.00
C3a      0.77763    0.77412    1.08155   1.00
H1       0.79765    0.79314    1.09700   1.00
C3a      0.72697    0.72455    1.08257   1.00
H1       0.70785    0.70528    1.09881   1.00
C2       0.75287    0.74917    1.10243   1.00
C2       0.75083    0.89757    0.74713   1.00
C3a      0.77600    0.91884    0.72293   1.00
H1       0.79570    0.90369    0.70335   1.00
C3a      0.72533    0.91704    0.77247   1.00
H1       0.70588    0.90051    0.79116   1.00
C3b      0.77595    0.95938    0.72379   1.00
C5       0.80339    0.98144    0.69739   1.00
H2       0.82334    0.99984    0.71502   1.00
H2       0.82150    0.96161    0.67927   1.00
H2       0.78658    1.00060    0.67744   1.00
C3b      0.72472    0.95756    0.77388   1.00
C5       0.69694    0.97767    0.80147   1.00
H2       0.67669    0.99670    0.78489   1.00
H2       0.67916    0.95655    0.81843   1.00
H2       0.71345    0.99594    0.82246   1.00
C4       0.75017    0.97873    0.74940   1.00
C4       0.74983    1.02127    0.75060   1.00
C3b      0.77472    1.04101    0.77678   1.00
C5       0.80191    1.01937    0.80379   1.00
H2       0.82253    1.00129    0.78662   1.00
H2       0.81929    1.03949    0.82230   1.00
H2       0.78495    0.99995    0.82336   1.00
C3b      0.72461    1.04204    0.72555   1.00
C5       0.69776    1.02152    0.69735   1.00
H2       0.67744    1.00217    0.71348   1.00
H2       0.68005    1.04235    0.67999   1.00
H2       0.71502    1.00350    0.67674   1.00
C3a      0.77412    1.08155    0.77763   1.00
H1       0.79314    1.09700    0.79765   1.00
C3a      0.72455    1.08257    0.72697   1.00
H1       0.70528    1.09881    0.70785   1.00
C2       0.74917    1.10243    0.75287   1.00
C2       0.60243    0.74713    0.74917   1.00
C3a      0.58116    0.72293    0.72400   1.00
H1       0.59631    0.70335    0.70430   1.00
C3a      0.58296    0.77247    0.77467   1.00
H1       0.59949    0.79116    0.79412   1.00
C3b      0.54062    0.72379    0.72405   1.00
C5       0.51856    0.69739    0.69661   1.00
H2       0.50016    0.71502    0.67666   1.00
H2       0.53839    0.67927    0.67850   1.00
H2       0.49940    0.67744    0.71342   1.00
C3b      0.54244    0.77388    0.77528   1.00
C5       0.52233    0.80147    0.80306   1.00
H2       0.50330    0.78489    0.82331   1.00
H2       0.54345    0.81843    0.82084   1.00
H2       0.50406    0.82246    0.78655   1.00
C4       0.52127    0.74940    0.74983   1.00
C4       0.47873    0.75060    0.75017   1.00
C3b      0.45899    0.77678    0.72528   1.00
C5       0.48063    0.80379    0.69809   1.00
H2       0.49871    0.78662    0.67747   1.00
H2       0.46051    0.82230    0.68071   1.00
H2       0.50005    0.82336    0.71505   1.00
C3b      0.45796    0.72555    0.77539   1.00
C5       0.47848    0.69735    0.80224   1.00
H2       0.49783    0.71348    0.82256   1.00
H2       0.45765    0.67999    0.81995   1.00
H2       0.49650    0.67674    0.78498   1.00
C3a      0.41845    0.77763    0.72588   1.00
H1       0.40300    0.79765    0.70686   1.00
C3a      0.41743    0.72697    0.77545   1.00
H1       0.40119    0.70785    0.79472   1.00
C2       0.39757    0.75287    0.75083   1.00
C2       0.89757    0.74713    0.75083   1.00
C3a      0.91884    0.72293    0.77600   1.00
H1       0.90369    0.70335    0.79570   1.00
C3a      0.91704    0.77247    0.72533   1.00
H1       0.90051    0.79116    0.70588   1.00
C3b      0.95938    0.72379    0.77595   1.00
C5       0.98144    0.69739    0.80339   1.00
H2       0.99984    0.71502    0.82334   1.00
H2       0.96161    0.67927    0.82150   1.00
H2       1.00060    0.67744    0.78658   1.00
C3b      0.95756    0.77388    0.72472   1.00
C5       0.97767    0.80147    0.69694   1.00
H2       0.99670    0.78489    0.67669   1.00
H2       0.95655    0.81843    0.67916   1.00
H2       0.99594    0.82246    0.71345   1.00
C4       0.97873    0.74940    0.75017   1.00
C4       1.02127    0.75060    0.74983   1.00
C3b      1.04101    0.77678    0.77472   1.00
C5       1.01937    0.80379    0.80191   1.00
H2       1.00129    0.78662    0.82253   1.00
H2       1.03949    0.82230    0.81929   1.00
H2       0.99995    0.82336    0.78495   1.00
C3b      1.04204    0.72555    0.72461   1.00
C5       1.02152    0.69735    0.69776   1.00
H2       1.00217    0.71348    0.67744   1.00
H2       1.04235    0.67999    0.68005   1.00
H2       1.00350    0.67674    0.71502   1.00
C3a      1.08155    0.77763    0.77412   1.00
H1       1.09700    0.79765    0.79314   1.00
C3a      1.08257    0.72697    0.72455   1.00
H1       1.09881    0.70785    0.70528   1.00
C2       1.10243    0.75287    0.74917   1.00
C2       0.74917    0.60243    0.74713   1.00
C3a      0.72400    0.58116    0.72293   1.00
H1       0.70430    0.59631    0.70335   1.00
C3a      0.77467    0.58296    0.77247   1.00
H1       0.79412    0.59949    0.79116   1.00
C3b      0.72405    0.54062    0.72379   1.00
C5       0.69661    0.51856    0.69739   1.00
H2       0.67666    0.50016    0.71502   1.00
H2       0.67850    0.53839    0.67927   1.00
H2       0.71342    0.49940    0.67744   1.00
C3b      0.77528    0.54244    0.77388   1.00
C5       0.80306    0.52233    0.80147   1.00
H2       0.82331    0.50330    0.78489   1.00
H2       0.82084    0.54345    0.81843   1.00
H2       0.78655    0.50406    0.82246   1.00
C4       0.74983    0.52127    0.74940   1.00
C4       0.75017    0.47873    0.75060   1.00
C3b      0.72528    0.45899    0.77678   1.00
C5       0.69809    0.48063    0.80379   1.00
H2       0.67747    0.49871    0.78662   1.00
H2       0.68071    0.46051    0.82230   1.00
H2       0.71505    0.50005    0.82336   1.00
C3b      0.77539    0.45796    0.72555   1.00
C5       0.80224    0.47848    0.69735   1.00
H2       0.82256    0.49783    0.71348   1.00
H2       0.81995    0.45765    0.67999   1.00
H2       0.78498    0.49650    0.67674   1.00
C3a      0.72588    0.41845    0.77763   1.00
H1       0.70686    0.40300    0.79765   1.00
C3a      0.77545    0.41743    0.72697   1.00
H1       0.79472    0.40119    0.70785   1.00
C2       0.75083    0.39757    0.75287   1.00
C2       0.74713    0.74917    0.60243   1.00
C3a      0.72293    0.72400    0.58116   1.00
H1       0.70335    0.70430    0.59631   1.00
C3a      0.77247    0.77467    0.58296   1.00
H1       0.79116    0.79412    0.59949   1.00
C3b      0.72379    0.72405    0.54062   1.00
C5       0.69739    0.69661    0.51856   1.00
H2       0.71502    0.67666    0.50016   1.00
H2       0.67927    0.67850    0.53839   1.00
H2       0.67744    0.71342    0.49940   1.00
C3b      0.77388    0.77528    0.54244   1.00
C5       0.80147    0.80306    0.52233   1.00
H2       0.78489    0.82331    0.50330   1.00
H2       0.81843    0.82084    0.54345   1.00
H2       0.82246    0.78655    0.50406   1.00
C4       0.74940    0.74983    0.52127   1.00
C4       0.75060    0.75017    0.47873   1.00
C3b      0.77678    0.72528    0.45899   1.00
C5       0.80379    0.69809    0.48063   1.00
H2       0.78662    0.67747    0.49871   1.00
H2       0.82230    0.68071    0.46051   1.00
H2       0.82336    0.71505    0.50005   1.00
C3b      0.72555    0.77539    0.45796   1.00
C5       0.69735    0.80224    0.47848   1.00
H2       0.71348    0.82256    0.49783   1.00
H2       0.67999    0.81995    0.45765   1.00
H2       0.67674    0.78498    0.49650   1.00
C3a      0.77763    0.72588    0.41845   1.00
H1       0.79765    0.70686    0.40300   1.00
C3a      0.72697    0.77545    0.41743   1.00
H1       0.70785    0.79472    0.40119   1.00
C2       0.75287    0.75083    0.39757   1.00
C2       0.24713    0.25083    0.89757   1.00
C3a      0.22293    0.27600    0.91884   1.00
H1       0.20335    0.29570    0.90369   1.00
C3a      0.27247    0.22533    0.91704   1.00
H1       0.29116    0.20588    0.90051   1.00
C3b      0.22379    0.27595    0.95938   1.00
C5       0.19739    0.30339    0.98144   1.00
H2       0.21502    0.32334    0.99984   1.00
H2       0.17927    0.32150    0.96161   1.00
H2       0.17744    0.28658    1.00060   1.00
C3b      0.27388    0.22472    0.95756   1.00
C5       0.30147    0.19694    0.97767   1.00
H2       0.28489    0.17669    0.99670   1.00
H2       0.31843    0.17916    0.95655   1.00
H2       0.32246    0.21345    0.99594   1.00
C4       0.24940    0.25017    0.97873   1.00
C4       0.25060    0.24983    1.02127   1.00
C3b      0.27678    0.27472    1.04101   1.00
C5       0.30379    0.30191    1.01937   1.00
H2       0.28662    0.32253    1.00129   1.00
H2       0.32230    0.31929    1.03949   1.00
H2       0.32336    0.28495    0.99995   1.00
C3b      0.22555    0.22461    1.04204   1.00
C5       0.19735    0.19776    1.02152   1.00
H2       0.21348    0.17744    1.00217   1.00
H2       0.17999    0.18005    1.04235   1.00
H2       0.17674    0.21502    1.00350   1.00
C3a      0.27763    0.27412    1.08155   1.00
H1       0.29765    0.29314    1.09700   1.00
C3a      0.22697    0.22455    1.08257   1.00
H1       0.20785    0.20528    1.09881   1.00
C2       0.25287    0.24917    1.10243   1.00
C2       0.25083    0.39757    0.74713   1.00
C3a      0.27600    0.41884    0.72293   1.00
H1       0.29570    0.40369    0.70335   1.00
C3a      0.22533    0.41704    0.77247   1.00
H1       0.20588    0.40051    0.79116   1.00
C3b      0.27595    0.45938    0.72379   1.00
C5       0.30339    0.48144    0.69739   1.00
H2       0.32334    0.49984    0.71502   1.00
H2       0.32150    0.46161    0.67927   1.00
H2       0.28658    0.50060    0.67744   1.00
C3b      0.22472    0.45756    0.77388   1.00
C5       0.19694    0.47767    0.80147   1.00
H2       0.17669    0.49670    0.78489   1.00
H2       0.17916    0.45655    0.81843   1.00
H2       0.21345    0.49594    0.82246   1.00
C4       0.25017    0.47873    0.74940   1.00
C4       0.24983    0.52127    0.75060   1.00
C3b      0.27472    0.54101    0.77678   1.00
C5       0.30191    0.51937    0.80379   1.00
H2       0.32253    0.50129    0.78662   1.00
H2       0.31929    0.53949    0.82230   1.00
H2       0.28495    0.49995    0.82336   1.00
C3b      0.22461    0.54204    0.72555   1.00
C5       0.19776    0.52152    0.69735   1.00
H2       0.17744    0.50217    0.71348   1.00
H2       0.18005    0.54235    0.67999   1.00
H2       0.21502    0.50350    0.67674   1.00
C3a      0.27412    0.58155    0.77763   1.00
H1       0.29314    0.59700    0.79765   1.00
C3a      0.22455    0.58257    0.72697   1.00
H1       0.20528    0.59881    0.70785   1.00
C2       0.24917    0.60243    0.75287   1.00
C2       0.10243    0.24713    0.74917   1.00
C3a      0.08116    0.22293    0.72400   1.00
H1       0.09631    0.20335    0.70430   1.00
C3a      0.08296    0.27247    0.77467   1.00
H1       0.09949    0.29116    0.79412   1.00
C3b      0.04062    0.22379    0.72405   1.00
C5       0.01856    0.19739    0.69661   1.00
H2       0.00016    0.21502    0.67666   1.00
H2       0.03839    0.17927    0.67850   1.00
H2       -0.00060   0.17744    0.71342   1.00
C3b      0.04244    0.27388    0.77528   1.00
C5       0.02233    0.30147    0.80306   1.00
H2       0.00330    0.28489    0.82331   1.00
H2       0.04345    0.31843    0.82084   1.00
H2       0.00406    0.32246    0.78655   1.00
C4       0.02127    0.24940    0.74983   1.00
C4       -0.02127   0.25060    0.75017   1.00
C3b      -0.04101   0.27678    0.72528   1.00
C5       -0.01937   0.30379    0.69809   1.00
H2       -0.00129   0.28662    0.67747   1.00
H2       -0.03949   0.32230    0.68071   1.00
H2       0.00005    0.32336    0.71505   1.00
C3b      -0.04204   0.22555    0.77539   1.00
C5       -0.02152   0.19735    0.80224   1.00
H2       -0.00217   0.21348    0.82256   1.00
H2       -0.04235   0.17999    0.81995   1.00
H2       -0.00350   0.17674    0.78498   1.00
C3a      -0.08155   0.27763    0.72588   1.00
H1       -0.09700   0.29765    0.70686   1.00
C3a      -0.08257   0.22697    0.77545   1.00
H1       -0.09881   0.20785    0.79472   1.00
C2       -0.10243   0.25287    0.75083   1.00
C2       0.39757    0.24713    0.75083   1.00
C3a      0.41884    0.22293    0.77600   1.00
H1       0.40369    0.20335    0.79570   1.00
C3a      0.41704    0.27247    0.72533   1.00
H1       0.40051    0.29116    0.70588   1.00
C3b      0.45938    0.22379    0.77595   1.00
C5       0.48144    0.19739    0.80339   1.00
H2       0.49984    0.21502    0.82334   1.00
H2       0.46161    0.17927    0.82150   1.00
H2       0.50060    0.17744    0.78658   1.00
C3b      0.45756    0.27388    0.72472   1.00
C5       0.47767    0.30147    0.69694   1.00
H2       0.49670    0.28489    0.67669   1.00
H2       0.45655    0.31843    0.67916   1.00
H2       0.49594    0.32246    0.71345   1.00
C4       0.47873    0.24940    0.75017   1.00
C4       0.52127    0.25060    0.74983   1.00
C3b      0.54101    0.27678    0.77472   1.00
C5       0.51937    0.30379    0.80191   1.00
H2       0.50129    0.28662    0.82253   1.00
H2       0.53949    0.32230    0.81929   1.00
H2       0.49995    0.32336    0.78495   1.00
C3b      0.54204    0.22555    0.72461   1.00
C5       0.52152    0.19735    0.69776   1.00
H2       0.50217    0.21348    0.67744   1.00
H2       0.54235    0.17999    0.68005   1.00
H2       0.50350    0.17674    0.71502   1.00
C3a      0.58155    0.27763    0.77412   1.00
H1       0.59700    0.29765    0.79314   1.00
C3a      0.58257    0.22697    0.72455   1.00
H1       0.59881    0.20785    0.70528   1.00
C2       0.60243    0.25287    0.74917   1.00
C2       0.24917    0.10243    0.74713   1.00
C3a      0.22400    0.08116    0.72293   1.00
H1       0.20430    0.09631    0.70335   1.00
C3a      0.27467    0.08296    0.77247   1.00
H1       0.29412    0.09949    0.79116   1.00
C3b      0.22405    0.04062    0.72379   1.00
C5       0.19661    0.01856    0.69739   1.00
H2       0.17666    0.00016    0.71502   1.00
H2       0.17850    0.03839    0.67927   1.00
H2       0.21342    -0.00060   0.67744   1.00
C3b      0.27528    0.04244    0.77388   1.00
C5       0.30306    0.02233    0.80147   1.00
H2       0.32331    0.00330    0.78489   1.00
H2       0.32084    0.04345    0.81843   1.00
H2       0.28655    0.00406    0.82246   1.00
C4       0.24983    0.02127    0.74940   1.00
C4       0.25017    -0.02127   0.75060   1.00
C3b      0.22528    -0.04101   0.77678   1.00
C5       0.19809    -0.01937   0.80379   1.00
H2       0.17747    -0.00129   0.78662   1.00
H2       0.18071    -0.03949   0.82230   1.00
H2       0.21505    0.00005    0.82336   1.00
C3b      0.27539    -0.04204   0.72555   1.00
C5       0.30224    -0.02152   0.69735   1.00
H2       0.32256    -0.00217   0.71348   1.00
H2       0.31995    -0.04235   0.67999   1.00
H2       0.28498    -0.00350   0.67674   1.00
C3a      0.22588    -0.08155   0.77763   1.00
H1       0.20686    -0.09700   0.79765   1.00
C3a      0.27545    -0.08257   0.72697   1.00
H1       0.29472    -0.09881   0.70785   1.00
C2       0.25083    -0.10243   0.75287   1.00
C2       0.24713    0.24917    0.60243   1.00
C3a      0.22293    0.22400    0.58116   1.00
H1       0.20335    0.20430    0.59631   1.00
C3a      0.27247    0.27467    0.58296   1.00
H1       0.29116    0.29412    0.59949   1.00
C3b      0.22379    0.22405    0.54062   1.00
C5       0.19739    0.19661    0.51856   1.00
H2       0.21502    0.17666    0.50016   1.00
H2       0.17927    0.17850    0.53839   1.00
H2       0.17744    0.21342    0.49940   1.00
C3b      0.27388    0.27528    0.54244   1.00
C5       0.30147    0.30306    0.52233   1.00
H2       0.28489    0.32331    0.50330   1.00
H2       0.31843    0.32084    0.54345   1.00
H2       0.32246    0.28655    0.50406   1.00
C4       0.24940    0.24983    0.52127   1.00
C4       0.25060    0.25017    0.47873   1.00
C3b      0.27678    0.22528    0.45899   1.00
C5       0.30379    0.19809    0.48063   1.00
H2       0.28662    0.17747    0.49871   1.00
H2       0.32230    0.18071    0.46051   1.00
H2       0.32336    0.21505    0.50005   1.00
C3b      0.22555    0.27539    0.45796   1.00
C5       0.19735    0.30224    0.47848   1.00
H2       0.21348    0.32256    0.49783   1.00
H2       0.17999    0.31995    0.45765   1.00
H2       0.17674    0.28498    0.49650   1.00
C3a      0.27763    0.22588    0.41845   1.00
H1       0.29765    0.20686    0.40300   1.00
C3a      0.22697    0.27545    0.41743   1.00
H1       0.20785    0.29472    0.40119   1.00
C2       0.25287    0.25083    0.39757   1.00
C2       0.24713    0.75083    0.39757   1.00
C3a      0.22293    0.77600    0.41884   1.00
H1       0.20335    0.79570    0.40369   1.00
C3a      0.27247    0.72533    0.41704   1.00
H1       0.29116    0.70588    0.40051   1.00
C3b      0.22379    0.77595    0.45938   1.00
C5       0.19739    0.80339    0.48144   1.00
H2       0.21502    0.82334    0.49984   1.00
H2       0.17927    0.82150    0.46161   1.00
H2       0.17744    0.78658    0.50060   1.00
C3b      0.27388    0.72472    0.45756   1.00
C5       0.30147    0.69694    0.47767   1.00
H2       0.28489    0.67669    0.49670   1.00
H2       0.31843    0.67916    0.45655   1.00
H2       0.32246    0.71345    0.49594   1.00
C4       0.24940    0.75017    0.47873   1.00
C4       0.25060    0.74983    0.52127   1.00
C3b      0.27678    0.77472    0.54101   1.00
C5       0.30379    0.80191    0.51937   1.00
H2       0.28662    0.82253    0.50129   1.00
H2       0.32230    0.81929    0.53949   1.00
H2       0.32336    0.78495    0.49995   1.00
C3b      0.22555    0.72461    0.54204   1.00
C5       0.19735    0.69776    0.52152   1.00
H2       0.21348    0.67744    0.50217   1.00
H2       0.17999    0.68005    0.54235   1.00
H2       0.17674    0.71502    0.50350   1.00
C3a      0.27763    0.77412    0.58155   1.00
H1       0.29765    0.79314    0.59700   1.00
C3a      0.22697    0.72455    0.58257   1.00
H1       0.20785    0.70528    0.59881   1.00
C2       0.25287    0.74917    0.60243   1.00
C2       0.25083    0.89757    0.24713   1.00
C3a      0.27600    0.91884    0.22293   1.00
H1       0.29570    0.90369    0.20335   1.00
C3a      0.22533    0.91704    0.27247   1.00
H1       0.20588    0.90051    0.29116   1.00
C3b      0.27595    0.95938    0.22379   1.00
C5       0.30339    0.98144    0.19739   1.00
H2       0.32334    0.99984    0.21502   1.00
H2       0.32150    0.96161    0.17927   1.00
H2       0.28658    1.00060    0.17744   1.00
C3b      0.22472    0.95756    0.27388   1.00
C5       0.19694    0.97767    0.30147   1.00
H2       0.17669    0.99670    0.28489   1.00
H2       0.17916    0.95655    0.31843   1.00
H2       0.21345    0.99594    0.32246   1.00
C4       0.25017    0.97873    0.24940   1.00
C4       0.24983    1.02127    0.25060   1.00
C3b      0.27472    1.04101    0.27678   1.00
C5       0.30191    1.01937    0.30379   1.00
H2       0.32253    1.00129    0.28662   1.00
H2       0.31929    1.03949    0.32230   1.00
H2       0.28495    0.99995    0.32336   1.00
C3b      0.22461    1.04204    0.22555   1.00
C5       0.19776    1.02152    0.19735   1.00
H2       0.17744    1.00217    0.21348   1.00
H2       0.18005    1.04235    0.17999   1.00
H2       0.21502    1.00350    0.17674   1.00
C3a      0.27412    1.08155    0.27763   1.00
H1       0.29314    1.09700    0.29765   1.00
C3a      0.22455    1.08257    0.22697   1.00
H1       0.20528    1.09881    0.20785   1.00
C2       0.24917    1.10243    0.25287   1.00
C2       0.10243    0.74713    0.24917   1.00
C3a      0.08116    0.72293    0.22400   1.00
H1       0.09631    0.70335    0.20430   1.00
C3a      0.08296    0.77247    0.27467   1.00
H1       0.09949    0.79116    0.29412   1.00
C3b      0.04062    0.72379    0.22405   1.00
C5       0.01856    0.69739    0.19661   1.00
H2       0.00016    0.71502    0.17666   1.00
H2       0.03839    0.67927    0.17850   1.00
H2       -0.00060   0.67744    0.21342   1.00
C3b      0.04244    0.77388    0.27528   1.00
C5       0.02233    0.80147    0.30306   1.00
H2       0.00330    0.78489    0.32331   1.00
H2       0.04345    0.81843    0.32084   1.00
H2       0.00406    0.82246    0.28655   1.00
C4       0.02127    0.74940    0.24983   1.00
C4       -0.02127   0.75060    0.25017   1.00
C3b      -0.04101   0.77678    0.22528   1.00
C5       -0.01937   0.80379    0.19809   1.00
H2       -0.00129   0.78662    0.17747   1.00
H2       -0.03949   0.82230    0.18071   1.00
H2       0.00005    0.82336    0.21505   1.00
C3b      -0.04204   0.72555    0.27539   1.00
C5       -0.02152   0.69735    0.30224   1.00
H2       -0.00217   0.71348    0.32256   1.00
H2       -0.04235   0.67999    0.31995   1.00
H2       -0.00350   0.67674    0.28498   1.00
C3a      -0.08155   0.77763    0.22588   1.00
H1       -0.09700   0.79765    0.20686   1.00
C3a      -0.08257   0.72697    0.27545   1.00
H1       -0.09881   0.70785    0.29472   1.00
C2       -0.10243   0.75287    0.25083   1.00
C2       0.39757    0.74713    0.25083   1.00
C3a      0.41884    0.72293    0.27600   1.00
H1       0.40369    0.70335    0.29570   1.00
C3a      0.41704    0.77247    0.22533   1.00
H1       0.40051    0.79116    0.20588   1.00
C3b      0.45938    0.72379    0.27595   1.00
C5       0.48144    0.69739    0.30339   1.00
H2       0.49984    0.71502    0.32334   1.00
H2       0.46161    0.67927    0.32150   1.00
H2       0.50060    0.67744    0.28658   1.00
C3b      0.45756    0.77388    0.22472   1.00
C5       0.47767    0.80147    0.19694   1.00
H2       0.49670    0.78489    0.17669   1.00
H2       0.45655    0.81843    0.17916   1.00
H2       0.49594    0.82246    0.21345   1.00
C4       0.47873    0.74940    0.25017   1.00
C4       0.52127    0.75060    0.24983   1.00
C3b      0.54101    0.77678    0.27472   1.00
C5       0.51937    0.80379    0.30191   1.00
H2       0.50129    0.78662    0.32253   1.00
H2       0.53949    0.82230    0.31929   1.00
H2       0.49995    0.82336    0.28495   1.00
C3b      0.54204    0.72555    0.22461   1.00
C5       0.52152    0.69735    0.19776   1.00
H2       0.50217    0.71348    0.17744   1.00
H2       0.54235    0.67999    0.18005   1.00
H2       0.50350    0.67674    0.21502   1.00
C3a      0.58155    0.77763    0.27412   1.00
H1       0.59700    0.79765    0.29314   1.00
C3a      0.58257    0.72697    0.22455   1.00
H1       0.59881    0.70785    0.20528   1.00
C2       0.60243    0.75287    0.24917   1.00
C2       0.24917    0.60243    0.24713   1.00
C3a      0.22400    0.58116    0.22293   1.00
H1       0.20430    0.59631    0.20335   1.00
C3a      0.27467    0.58296    0.27247   1.00
H1       0.29412    0.59949    0.29116   1.00
C3b      0.22405    0.54062    0.22379   1.00
C5       0.19661    0.51856    0.19739   1.00
H2       0.17666    0.50016    0.21502   1.00
H2       0.17850    0.53839    0.17927   1.00
H2       0.21342    0.49940    0.17744   1.00
C3b      0.27528    0.54244    0.27388   1.00
C5       0.30306    0.52233    0.30147   1.00
H2       0.32331    0.50330    0.28489   1.00
H2       0.32084    0.54345    0.31843   1.00
H2       0.28655    0.50406    0.32246   1.00
C4       0.24983    0.52127    0.24940   1.00
C4       0.25017    0.47873    0.25060   1.00
C3b      0.22528    0.45899    0.27678   1.00
C5       0.19809    0.48063    0.30379   1.00
H2       0.17747    0.49871    0.28662   1.00
H2       0.18071    0.46051    0.32230   1.00
H2       0.21505    0.50005    0.32336   1.00
C3b      0.27539    0.45796    0.22555   1.00
C5       0.30224    0.47848    0.19735   1.00
H2       0.32256    0.49783    0.21348   1.00
H2       0.31995    0.45765    0.17999   1.00
H2       0.28498    0.49650    0.17674   1.00
C3a      0.22588    0.41845    0.27763   1.00
H1       0.20686    0.40300    0.29765   1.00
C3a      0.27545    0.41743    0.22697   1.00
H1       0.29472    0.40119    0.20785   1.00
C2       0.25083    0.39757    0.25287   1.00
C2       0.24713    0.74917    0.10243   1.00
C3a      0.22293    0.72400    0.08116   1.00
H1       0.20335    0.70430    0.09631   1.00
C3a      0.27247    0.77467    0.08296   1.00
H1       0.29116    0.79412    0.09949   1.00
C3b      0.22379    0.72405    0.04062   1.00
C5       0.19739    0.69661    0.01856   1.00
H2       0.21502    0.67666    0.00016   1.00
H2       0.17927    0.67850    0.03839   1.00
H2       0.17744    0.71342    -0.00060   1.00
C3b      0.27388    0.77528    0.04244   1.00
C5       0.30147    0.80306    0.02233   1.00
H2       0.28489    0.82331    0.00330   1.00
H2       0.31843    0.82084    0.04345   1.00
H2       0.32246    0.78655    0.00406   1.00
C4       0.24940    0.74983    0.02127   1.00
C4       0.25060    0.75017    -0.02127   1.00
C3b      0.27678    0.72528    -0.04101   1.00
C5       0.30379    0.69809    -0.01937   1.00
H2       0.28662    0.67747    -0.00129   1.00
H2       0.32230    0.68071    -0.03949   1.00
H2       0.32336    0.71505    0.00005   1.00
C3b      0.22555    0.77539    -0.04204   1.00
C5       0.19735    0.80224    -0.02152   1.00
H2       0.21348    0.82256    -0.00217   1.00
H2       0.17999    0.81995    -0.04235   1.00
H2       0.17674    0.78498    -0.00350   1.00
C3a      0.27763    0.72588    -0.08155   1.00
H1       0.29765    0.70686    -0.09700   1.00
C3a      0.22697    0.77545    -0.08257   1.00
H1       0.20785    0.79472    -0.09881   1.00
C2       0.25287    0.75083    -0.10243   1.00
C2       0.74713    0.25083    0.39757   1.00
C3a      0.72293    0.27600    0.41884   1.00
H1       0.70335    0.29570    0.40369   1.00
C3a      0.77247    0.22533    0.41704   1.00
H1       0.79116    0.20588    0.40051   1.00
C3b      0.72379    0.27595    0.45938   1.00
C5       0.69739    0.30339    0.48144   1.00
H2       0.71502    0.32334    0.49984   1.00
H2       0.67927    0.32150    0.46161   1.00
H2       0.67744    0.28658    0.50060   1.00
C3b      0.77388    0.22472    0.45756   1.00
C5       0.80147    0.19694    0.47767   1.00
H2       0.78489    0.17669    0.49670   1.00
H2       0.81843    0.17916    0.45655   1.00
H2       0.82246    0.21345    0.49594   1.00
C4       0.74940    0.25017    0.47873   1.00
C4       0.75060    0.24983    0.52127   1.00
C3b      0.77678    0.27472    0.54101   1.00
C5       0.80379    0.30191    0.51937   1.00
H2       0.78662    0.32253    0.50129   1.00
H2       0.82230    0.31929    0.53949   1.00
H2       0.82336    0.28495    0.49995   1.00
C3b      0.72555    0.22461    0.54204   1.00
C5       0.69735    0.19776    0.52152   1.00
H2       0.71348    0.17744    0.50217   1.00
H2       0.67999    0.18005    0.54235   1.00
H2       0.67674    0.21502    0.50350   1.00
C3a      0.77763    0.27412    0.58155   1.00
H1       0.79765    0.29314    0.59700   1.00
C3a      0.72697    0.22455    0.58257   1.00
H1       0.70785    0.20528    0.59881   1.00
C2       0.75287    0.24917    0.60243   1.00
C2       0.75083    0.39757    0.24713   1.00
C3a      0.77600    0.41884    0.22293   1.00
H1       0.79570    0.40369    0.20335   1.00
C3a      0.72533    0.41704    0.27247   1.00
H1       0.70588    0.40051    0.29116   1.00
C3b      0.77595    0.45938    0.22379   1.00
C5       0.80339    0.48144    0.19739   1.00
H2       0.82334    0.49984    0.21502   1.00
H2       0.82150    0.46161    0.17927   1.00
H2       0.78658    0.50060    0.17744   1.00
C3b      0.72472    0.45756    0.27388   1.00
C5       0.69694    0.47767    0.30147   1.00
H2       0.67669    0.49670    0.28489   1.00
H2       0.67916    0.45655    0.31843   1.00
H2       0.71345    0.49594    0.32246   1.00
C4       0.75017    0.47873    0.24940   1.00
C4       0.74983    0.52127    0.25060   1.00
C3b      0.77472    0.54101    0.27678   1.00
C5       0.80191    0.51937    0.30379   1.00
H2       0.82253    0.50129    0.28662   1.00
H2       0.81929    0.53949    0.32230   1.00
H2       0.78495    0.49995    0.32336   1.00
C3b      0.72461    0.54204    0.22555   1.00
C5       0.69776    0.52152    0.19735   1.00
H2       0.67744    0.50217    0.21348   1.00
H2       0.68005    0.54235    0.17999   1.00
H2       0.71502    0.50350    0.17674   1.00
C3a      0.77412    0.58155    0.27763   1.00
H1       0.79314    0.59700    0.29765   1.00
C3a      0.72455    0.58257    0.22697   1.00
H1       0.70528    0.59881    0.20785   1.00
C2       0.74917    0.60243    0.25287   1.00
C2       0.60243    0.24713    0.24917   1.00
C3a      0.58116    0.22293    0.22400   1.00
H1       0.59631    0.20335    0.20430   1.00
C3a      0.58296    0.27247    0.27467   1.00
H1       0.59949    0.29116    0.29412   1.00
C3b      0.54062    0.22379    0.22405   1.00
C5       0.51856    0.19739    0.19661   1.00
H2       0.50016    0.21502    0.17666   1.00
H2       0.53839    0.17927    0.17850   1.00
H2       0.49940    0.17744    0.21342   1.00
C3b      0.54244    0.27388    0.27528   1.00
C5       0.52233    0.30147    0.30306   1.00
H2       0.50330    0.28489    0.32331   1.00
H2       0.54345    0.31843    0.32084   1.00
H2       0.50406    0.32246    0.28655   1.00
C4       0.52127    0.24940    0.24983   1.00
C4       0.47873    0.25060    0.25017   1.00
C3b      0.45899    0.27678    0.22528   1.00
C5       0.48063    0.30379    0.19809   1.00
H2       0.49871    0.28662    0.17747   1.00
H2       0.46051    0.32230    0.18071   1.00
H2       0.50005    0.32336    0.21505   1.00
C3b      0.45796    0.22555    0.27539   1.00
C5       0.47848    0.19735    0.30224   1.00
H2       0.49783    0.21348    0.32256   1.00
H2       0.45765    0.17999    0.31995   1.00
H2       0.49650    0.17674    0.28498   1.00
C3a      0.41845    0.27763    0.22588   1.00
H1       0.40300    0.29765    0.20686   1.00
C3a      0.41743    0.22697    0.27545   1.00
H1       0.40119    0.20785    0.29472   1.00
C2       0.39757    0.25287    0.25083   1.00
C2       0.89757    0.24713    0.25083   1.00
C3a      0.91884    0.22293    0.27600   1.00
H1       0.90369    0.20335    0.29570   1.00
C3a      0.91704    0.27247    0.22533   1.00
H1       0.90051    0.29116    0.20588   1.00
C3b      0.95938    0.22379    0.27595   1.00
C5       0.98144    0.19739    0.30339   1.00
H2       0.99984    0.21502    0.32334   1.00
H2       0.96161    0.17927    0.32150   1.00
H2       1.00060    0.17744    0.28658   1.00
C3b      0.95756    0.27388    0.22472   1.00
C5       0.97767    0.30147    0.19694   1.00
H2       0.99670    0.28489    0.17669   1.00
H2       0.95655    0.31843    0.17916   1.00
H2       0.99594    0.32246    0.21345   1.00
C4       0.97873    0.24940    0.25017   1.00
C4       1.02127    0.25060    0.24983   1.00
C3b      1.04101    0.27678    0.27472   1.00
C5       1.01937    0.30379    0.30191   1.00
H2       1.00129    0.28662    0.32253   1.00
H2       1.03949    0.32230    0.31929   1.00
H2       0.99995    0.32336    0.28495   1.00
C3b      1.04204    0.22555    0.22461   1.00
C5       1.02152    0.19735    0.19776   1.00
H2       1.00217    0.21348    0.17744   1.00
H2       1.04235    0.17999    0.18005   1.00
H2       1.00350    0.17674    0.21502   1.00
C3a      1.08155    0.27763    0.27412   1.00
H1       1.09700    0.29765    0.29314   1.00
C3a      1.08257    0.22697    0.22455   1.00
H1       1.09881    0.20785    0.20528   1.00
C2       1.10243    0.25287    0.24917   1.00
C2       0.74917    0.10243    0.24713   1.00
C3a      0.72400    0.08116    0.22293   1.00
H1       0.70430    0.09631    0.20335   1.00
C3a      0.77467    0.08296    0.27247   1.00
H1       0.79412    0.09949    0.29116   1.00
C3b      0.72405    0.04062    0.22379   1.00
C5       0.69661    0.01856    0.19739   1.00
H2       0.67666    0.00016    0.21502   1.00
H2       0.67850    0.03839    0.17927   1.00
H2       0.71342    -0.00060   0.17744   1.00
C3b      0.77528    0.04244    0.27388   1.00
C5       0.80306    0.02233    0.30147   1.00
H2       0.82331    0.00330    0.28489   1.00
H2       0.82084    0.04345    0.31843   1.00
H2       0.78655    0.00406    0.32246   1.00
C4       0.74983    0.02127    0.24940   1.00
C4       0.75017    -0.02127   0.25060   1.00
C3b      0.72528    -0.04101   0.27678   1.00
C5       0.69809    -0.01937   0.30379   1.00
H2       0.67747    -0.00129   0.28662   1.00
H2       0.68071    -0.03949   0.32230   1.00
H2       0.71505    0.00005    0.32336   1.00
C3b      0.77539    -0.04204   0.22555   1.00
C5       0.80224    -0.02152   0.19735   1.00
H2       0.82256    -0.00217   0.21348   1.00
H2       0.81995    -0.04235   0.17999   1.00
H2       0.78498    -0.00350   0.17674   1.00
C3a      0.72588    -0.08155   0.27763   1.00
H1       0.70686    -0.09700   0.29765   1.00
C3a      0.77545    -0.08257   0.22697   1.00
H1       0.79472    -0.09881   0.20785   1.00
C2       0.75083    -0.10243   0.25287   1.00
C2       0.74713    0.24917    0.10243   1.00
C3a      0.72293    0.22400    0.08116   1.00
H1       0.70335    0.20430    0.09631   1.00
C3a      0.77247    0.27467    0.08296   1.00
H1       0.79116    0.29412    0.09949   1.00
C3b      0.72379    0.22405    0.04062   1.00
C5       0.69739    0.19661    0.01856   1.00
H2       0.71502    0.17666    0.00016   1.00
H2       0.67927    0.17850    0.03839   1.00
H2       0.67744    0.21342    -0.00060   1.00
C3b      0.77388    0.27528    0.04244   1.00
C5       0.80147    0.30306    0.02233   1.00
H2       0.78489    0.32331    0.00330   1.00
H2       0.81843    0.32084    0.04345   1.00
H2       0.82246    0.28655    0.00406   1.00
C4       0.74940    0.24983    0.02127   1.00
C4       0.75060    0.25017    -0.02127   1.00
C3b      0.77678    0.22528    -0.04101   1.00
C5       0.80379    0.19809    -0.01937   1.00
H2       0.78662    0.17747    -0.00129   1.00
H2       0.82230    0.18071    -0.03949   1.00
H2       0.82336    0.21505    0.00005   1.00
C3b      0.72555    0.27539    -0.04204   1.00
C5       0.69735    0.30224    -0.02152   1.00
H2       0.71348    0.32256    -0.00217   1.00
H2       0.67999    0.31995    -0.04235   1.00
H2       0.67674    0.28498    -0.00350   1.00
C3a      0.77763    0.22588    -0.08155   1.00
H1       0.79765    0.20686    -0.09700   1.00
C3a      0.72697    0.27545    -0.08257   1.00
H1       0.70785    0.29472    -0.09881   1.00
C2       0.75287    0.25083    -0.10243   1.00
C2       0.99713    1.00083    1.14757   1.00
C3a      0.97293    1.02600    1.16884   1.00
H1       0.95335    1.04570    1.15369   1.00
C3a      1.02247    0.97533    1.16704   1.00
H1       1.04116    0.95588    1.15051   1.00
C3b      0.97379    1.02595    1.20938   1.00
C5       0.94739    1.05339    1.23144   1.00
H2       0.96502    1.07334    1.24984   1.00
H2       0.92927    1.07150    1.21161   1.00
H2       0.92744    1.03658    1.25060   1.00
C3b      1.02388    0.97472    1.20756   1.00
C5       1.05147    0.94694    1.22767   1.00
H2       1.03489    0.92669    1.24670   1.00
H2       1.06843    0.92916    1.20655   1.00
H2       1.07246    0.96345    1.24594   1.00
C4       0.99940    1.00017    1.22873   1.00
C4       1.00060    0.99983    1.27127   1.00
C3b      1.02678    1.02472    1.29101   1.00
C5       1.05379    1.05191    1.26937   1.00
H2       1.03662    1.07253    1.25129   1.00
H2       1.07230    1.06929    1.28949   1.00
H2       1.07336    1.03495    1.24995   1.00
C3b      0.97555    0.97461    1.29204   1.00
C5       0.94735    0.94776    1.27152   1.00
H2       0.96348    0.92744    1.25217   1.00
H2       0.92999    0.93005    1.29235   1.00
H2       0.92674    0.96502    1.25350   1.00
C3a      1.02763    1.02412    1.33155   1.00
H1       1.04765    1.04314    1.34700   1.00
C3a      0.97697    0.97455    1.33257   1.00
H1       0.95785    0.95528    1.34881   1.00
C2       1.00287    0.99917    1.35243   1.00
C2       1.00083    1.14757    0.99713   1.00
C3a      1.02600    1.16884    0.97293   1.00
H1       1.04570    1.15369    0.95335   1.00
C3a      0.97533    1.16704    1.02247   1.00
H1       0.95588    1.15051    1.04116   1.00
C3b      1.02595    1.20938    0.97379   1.00
C5       1.05339    1.23144    0.94739   1.00
H2       1.07334    1.24984    0.96502   1.00
H2       1.07150    1.21161    0.92927   1.00
H2       1.03658    1.25060    0.92744   1.00
C3b      0.97472    1.20756    1.02388   1.00
C5       0.94694    1.22767    1.05147   1.00
H2       0.92669    1.24670    1.03489   1.00
H2       0.92916    1.20655    1.06843   1.00
H2       0.96345    1.24594    1.07246   1.00
C4       1.00017    1.22873    0.99940   1.00
C4       0.99983    1.27127    1.00060   1.00
C3b      1.02472    1.29101    1.02678   1.00
C5       1.05191    1.26937    1.05379   1.00
H2       1.07253    1.25129    1.03662   1.00
H2       1.06929    1.28949    1.07230   1.00
H2       1.03495    1.24995    1.07336   1.00
C3b      0.97461    1.29204    0.97555   1.00
C5       0.94776    1.27152    0.94735   1.00
H2       0.92744    1.25217    0.96348   1.00
H2       0.93005    1.29235    0.92999   1.00
H2       0.96502    1.25350    0.92674   1.00
C3a      1.02412    1.33155    1.02763   1.00
H1       1.04314    1.34700    1.04765   1.00
C3a      0.97455    1.33257    0.97697   1.00
H1       0.95528    1.34881    0.95785   1.00
C2       0.99917    1.35243    1.00287   1.00
C2       0.85243    0.99713    0.99917   1.00
C3a      0.83116    0.97293    0.97400   1.00
H1       0.84631    0.95335    0.95430   1.00
C3a      0.83296    1.02247    1.02467   1.00
H1       0.84949    1.04116    1.04412   1.00
C3b      0.79062    0.97379    0.97405   1.00
C5       0.76856    0.94739    0.94661   1.00
H2       0.75016    0.96502    0.92666   1.00
H2       0.78839    0.92927    0.92850   1.00
H2       0.74940    0.92744    0.96342   1.00
C3b      0.79244    1.02388    1.02528   1.00
C5       0.77233    1.05147    1.05306   1.00
H2       0.75330    1.03489    1.07331   1.00
H2       0.79345    1.06843    1.07084   1.00
H2       0.75406    1.07246    1.03655   1.00
C4       0.77127    0.99940    0.99983   1.00
C4       0.72873    1.00060    1.00017   1.00
C3b      0.70899    1.02678    0.97528   1.00
C5       0.73063    1.05379    0.94809   1.00
H2       0.74871    1.03662    0.92747   1.00
H2       0.71051    1.07230    0.93071   1.00
H2       0.75005    1.07336    0.96505   1.00
C3b      0.70796    0.97555    1.02539   1.00
C5       0.72848    0.94735    1.05224   1.00
H2       0.74783    0.96348    1.07256   1.00
H2       0.70765    0.92999    1.06995   1.00
H2       0.74650    0.92674    1.03498   1.00
C3a      0.66845    1.02763    0.97588   1.00
H1       0.65300    1.04765    0.95686   1.00
C3a      0.66743    0.97697    1.02545   1.00
H1       0.65119    0.95785    1.04472   1.00
C2       0.64757    1.00287    1.00083   1.00
C2       1.14757    0.99713    1.00083   1.00
C3a      1.16884    0.97293    1.02600   1.00
H1       1.15369    0.95335    1.04570   1.00
C3a      1.16704    1.02247    0.97533   1.00
H1       1.15051    1.04116    0.95588   1.00
C3b      1.20938    0.97379    1.02595   1.00
C5       1.23144    0.94739    1.05339   1.00
H2       1.24984    0.96502    1.07334   1.00
H2       1.21161    0.92927    1.07150   1.00
H2       1.25060    0.92744    1.03658   1.00
C3b      1.20756    1.02388    0.97472   1.00
C5       1.22767    1.05147    0.94694   1.00
H2       1.24670    1.03489    0.92669   1.00
H2       1.20655    1.06843    0.92916   1.00
H2       1.24594    1.07246    0.96345   1.00
C4       1.22873    0.99940    1.00017   1.00
C4       1.27127    1.00060    0.99983   1.00
C3b      1.29101    1.02678    1.02472   1.00
C5       1.26937    1.05379    1.05191   1.00
H2       1.25129    1.03662    1.07253   1.00
H2       1.28949    1.07230    1.06929   1.00
H2       1.24995    1.07336    1.03495   1.00
C3b      1.29204    0.97555    0.97461   1.00
C5       1.27152    0.94735    0.94776   1.00
H2       1.25217    0.96348    0.92744   1.00
H2       1.29235    0.92999    0.93005   1.00
H2       1.25350    0.92674    0.96502   1.00
C3a      1.33155    1.02763    1.02412   1.00
H1       1.34700    1.04765    1.04314   1.00
C3a      1.33257    0.97697    0.97455   1.00
H1       1.34881    0.95785    0.95528   1.00
C2       1.35243    1.00287    0.99917   1.00
C2       0.99917    0.85243    0.99713   1.00
C3a      0.97400    0.83116    0.97293   1.00
H1       0.95430    0.84631    0.95335   1.00
C3a      1.02467    0.83296    1.02247   1.00
H1       1.04412    0.84949    1.04116   1.00
C3b      0.97405    0.79062    0.97379   1.00
C5       0.94661    0.76856    0.94739   1.00
H2       0.92666    0.75016    0.96502   1.00
H2       0.92850    0.78839    0.92927   1.00
H2       0.96342    0.74940    0.92744   1.00
C3b      1.02528    0.79244    1.02388   1.00
C5       1.05306    0.77233    1.05147   1.00
H2       1.07331    0.75330    1.03489   1.00
H2       1.07084    0.79345    1.06843   1.00
H2       1.03655    0.75406    1.07246   1.00
C4       0.99983    0.77127    0.99940   1.00
C4       1.00017    0.72873    1.00060   1.00
C3b      0.97528    0.70899    1.02678   1.00
C5       0.94809    0.73063    1.05379   1.00
H2       0.92747    0.74871    1.03662   1.00
H2       0.93071    0.71051    1.07230   1.00
H2       0.96505    0.75005    1.07336   1.00
C3b      1.02539    0.70796    0.97555   1.00
C5       1.05224    0.72848    0.94735   1.00
H2       1.07256    0.74783    0.96348   1.00
H2       1.06995    0.70765    0.92999   1.00
H2       1.03498    0.74650    0.92674   1.00
C3a      0.97588    0.66845    1.02763   1.00
H1       0.95686    0.65300    1.04765   1.00
C3a      1.02545    0.66743    0.97697   1.00
H1       1.04472    0.65119    0.95785   1.00
C2       1.00083    0.64757    1.00287   1.00
C2       0.99713    0.99917    0.85243   1.00
C3a      0.97293    0.97400    0.83116   1.00
H1       0.95335    0.95430    0.84631   1.00
C3a      1.02247    1.02467    0.83296   1.00
H1       1.04116    1.04412    0.84949   1.00
C3b      0.97379    0.97405    0.79062   1.00
C5       0.94739    0.94661    0.76856   1.00
H2       0.96502    0.92666    0.75016   1.00
H2       0.92927    0.92850    0.78839   1.00
H2       0.92744    0.96342    0.74940   1.00
C3b      1.02388    1.02528    0.79244   1.00
C5       1.05147    1.05306    0.77233   1.00
H2       1.03489    1.07331    0.75330   1.00
H2       1.06843    1.07084    0.79345   1.00
H2       1.07246    1.03655    0.75406   1.00
C4       0.99940    0.99983    0.77127   1.00
C4       1.00060    1.00017    0.72873   1.00
C3b      1.02678    0.97528    0.70899   1.00
C5       1.05379    0.94809    0.73063   1.00
H2       1.03662    0.92747    0.74871   1.00
H2       1.07230    0.93071    0.71051   1.00
H2       1.07336    0.96505    0.75005   1.00
C3b      0.97555    1.02539    0.70796   1.00
C5       0.94735    1.05224    0.72848   1.00
H2       0.96348    1.07256    0.74783   1.00
H2       0.92999    1.06995    0.70765   1.00
H2       0.92674    1.03498    0.74650   1.00
C3a      1.02763    0.97588    0.66845   1.00
H1       1.04765    0.95686    0.65300   1.00
C3a      0.97697    1.02545    0.66743   1.00
H1       0.95785    1.04472    0.65119   1.00
C2       1.00287    1.00083    0.64757   1.00
C2       0.49713    0.50083    1.14757   1.00
C3a      0.47293    0.52600    1.16884   1.00
H1       0.45335    0.54570    1.15369   1.00
C3a      0.52247    0.47533    1.16704   1.00
H1       0.54116    0.45588    1.15051   1.00
C3b      0.47379    0.52595    1.20938   1.00
C5       0.44739    0.55339    1.23144   1.00
H2       0.46502    0.57334    1.24984   1.00
H2       0.42927    0.57150    1.21161   1.00
H2       0.42744    0.53658    1.25060   1.00
C3b      0.52388    0.47472    1.20756   1.00
C5       0.55147    0.44694    1.22767   1.00
H2       0.53489    0.42669    1.24670   1.00
H2       0.56843    0.42916    1.20655   1.00
H2       0.57246    0.46345    1.24594   1.00
C4       0.49940    0.50017    1.22873   1.00
C4       0.50060    0.49983    1.27127   1.00
C3b      0.52678    0.52472    1.29101   1.00
C5       0.55379    0.55191    1.26937   1.00
H2       0.53662    0.57253    1.25129   1.00
H2       0.57230    0.56929    1.28949   1.00
H2       0.57336    0.53495    1.24995   1.00
C3b      0.47555    0.47461    1.29204   1.00
C5       0.44735    0.44776    1.27152   1.00
H2       0.46348    0.42744    1.25217   1.00
H2       0.42999    0.43005    1.29235   1.00
H2       0.42674    0.46502    1.25350   1.00
C3a      0.52763    0.52412    1.33155   1.00
H1       0.54765    0.54314    1.34700   1.00
C3a      0.47697    0.47455    1.33257   1.00
H1       0.45785    0.45528    1.34881   1.00
C2       0.50287    0.49917    1.35243   1.00
C2       0.50083    0.64757    0.99713   1.00
C3a      0.52600    0.66884    0.97293   1.00
H1       0.54570    0.65369    0.95335   1.00
C3a      0.47533    0.66704    1.02247   1.00
H1       0.45588    0.65051    1.04116   1.00
C3b      0.52595    0.70938    0.97379   1.00
C5       0.55339    0.73144    0.94739   1.00
H2       0.57334    0.74984    0.96502   1.00
H2       0.57150    0.71161    0.92927   1.00
H2       0.53658    0.75060    0.92744   1.00
C3b      0.47472    0.70756    1.02388   1.00
C5       0.44694    0.72767    1.05147   1.00
H2       0.42669    0.74670    1.03489   1.00
H2       0.42916    0.70655    1.06843   1.00
H2       0.46345    0.74594    1.07246   1.00
C4       0.50017    0.72873    0.99940   1.00
C4       0.49983    0.77127    1.00060   1.00
C3b      0.52472    0.79101    1.02678   1.00
C5       0.55191    0.76937    1.05379   1.00
H2       0.57253    0.75129    1.03662   1.00
H2       0.56929    0.78949    1.07230   1.00
H2       0.53495    0.74995    1.07336   1.00
C3b      0.47461    0.79204    0.97555   1.00
C5       0.44776    0.77152    0.94735   1.00
H2       0.42744    0.75217    0.96348   1.00
H2       0.43005    0.79235    0.92999   1.00
H2       0.46502    0.75350    0.92674   1.00
C3a      0.52412    0.83155    1.02763   1.00
H1       0.54314    0.84700    1.04765   1.00
C3a      0.47455    0.83257    0.97697   1.00
H1       0.45528    0.84881    0.95785   1.00
C2       0.49917    0.85243    1.00287   1.00
C2       0.35243    0.49713    0.99917   1.00
C3a      0.33116    0.47293    0.97400   1.00
H1       0.34631    0.45335    0.95430   1.00
C3a      0.33296    0.52247    1.02467   1.00
H1       0.34949    0.54116    1.04412   1.00
C3b      0.29062    0.47379    0.97405   1.00
C5       0.26856    0.44739    0.94661   1.00
H2       0.25016    0.46502    0.92666   1.00
H2       0.28839    0.42927    0.92850   1.00
H2       0.24940    0.42744    0.96342   1.00
C3b      0.29244    0.52388    1.02528   1.00
C5       0.27233    0.55147    1.05306   1.00
H2       0.25330    0.53489    1.07331   1.00
H2       0.29345    0.56843    1.07084   1.00
H2       0.25406    0.57246    1.03655   1.00
C4       0.27127    0.49940    0.99983   1.00
C4       0.22873    0.50060    1.00017   1.00
C3b      0.20899    0.52678    0.97528   1.00
C5       0.23063    0.55379    0.94809   1.00
H2       0.24871    0.53662    0.92747   1.00
H2       0.21051    0.57230    0.93071   1.00
H2       0.25005    0.57336    0.96505   1.00
C3b      0.20796    0.47555    1.02539   1.00
C5       0.22848    0.44735    1.05224   1.00
H2       0.24783    0.46348    1.07256   1.00
H2       0.20765    0.42999    1.06995   1.00
H2       0.24650    0.42674    1.03498   1.00
C3a      0.16845    0.52763    0.97588   1.00
H1       0.15300    0.54765    0.95686   1.00
C3a      0.16743    0.47697    1.02545   1.00
H1       0.15119    0.45785    1.04472   1.00
C2       0.14757    0.50287    1.00083   1.00
C2       0.64757    0.49713    1.00083   1.00
C3a      0.66884    0.47293    1.02600   1.00
H1       0.65369    0.45335    1.04570   1.00
C3a      0.66704    0.52247    0.97533   1.00
H1       0.65051    0.54116    0.95588   1.00
C3b      0.70938    0.47379    1.02595   1.00
C5       0.73144    0.44739    1.05339   1.00
H2       0.74984    0.46502    1.07334   1.00
H2       0.71161    0.42927    1.07150   1.00
H2       0.75060    0.42744    1.03658   1.00
C3b      0.70756    0.52388    0.97472   1.00
C5       0.72767    0.55147    0.94694   1.00
H2       0.74670    0.53489    0.92669   1.00
H2       0.70655    0.56843    0.92916   1.00
H2       0.74594    0.57246    0.96345   1.00
C4       0.72873    0.49940    1.00017   1.00
C4       0.77127    0.50060    0.99983   1.00
C3b      0.79101    0.52678    1.02472   1.00
C5       0.76937    0.55379    1.05191   1.00
H2       0.75129    0.53662    1.07253   1.00
H2       0.78949    0.57230    1.06929   1.00
H2       0.74995    0.57336    1.03495   1.00
C3b      0.79204    0.47555    0.97461   1.00
C5       0.77152    0.44735    0.94776   1.00
H2       0.75217    0.46348    0.92744   1.00
H2       0.79235    0.42999    0.93005   1.00
H2       0.75350    0.42674    0.96502   1.00
C3a      0.83155    0.52763    1.02412   1.00
H1       0.84700    0.54765    1.04314   1.00
C3a      0.83257    0.47697    0.97455   1.00
H1       0.84881    0.45785    0.95528   1.00
C2       0.85243    0.50287    0.99917   1.00
C2       0.49917    0.35243    0.99713   1.00
C3a      0.47400    0.33116    0.97293   1.00
H1       0.45430    0.34631    0.95335   1.00
C3a      0.52467    0.33296    1.02247   1.00
H1       0.54412    0.34949    1.04116   1.00
C3b      0.47405    0.29062    0.97379   1.00
C5       0.44661    0.26856    0.94739   1.00
H2       0.42666    0.25016    0.96502   1.00
H2       0.42850    0.28839    0.92927   1.00
H2       0.46342    0.24940    0.92744   1.00
C3b      0.52528    0.29244    1.02388   1.00
C5       0.55306    0.27233    1.05147   1.00
H2       0.57331    0.25330    1.03489   1.00
H2       0.57084    0.29345    1.06843   1.00
H2       0.53655    0.25406    1.07246   1.00
C4       0.49983    0.27127    0.99940   1.00
C4       0.50017    0.22873    1.00060   1.00
C3b      0.47528    0.20899    1.02678   1.00
C5       0.44809    0.23063    1.05379   1.00
H2       0.42747    0.24871    1.03662   1.00
H2       0.43071    0.21051    1.07230   1.00
H2       0.46505    0.25005    1.07336   1.00
C3b      0.52539    0.20796    0.97555   1.00
C5       0.55224    0.22848    0.94735   1.00
H2       0.57256    0.24783    0.96348   1.00
H2       0.56995    0.20765    0.92999   1.00
H2       0.53498    0.24650    0.92674   1.00
C3a      0.47588    0.16845    1.02763   1.00
H1       0.45686    0.15300    1.04765   1.00
C3a      0.52545    0.16743    0.97697   1.00
H1       0.54472    0.15119    0.95785   1.00
C2       0.50083    0.14757    1.00287   1.00
C2       0.49713    0.49917    0.85243   1.00
C3a      0.47293    0.47400    0.83116   1.00
H1       0.45335    0.45430    0.84631   1.00
C3a      0.52247    0.52467    0.83296   1.00
H1       0.54116    0.54412    0.84949   1.00
C3b      0.47379    0.47405    0.79062   1.00
C5       0.44739    0.44661    0.76856   1.00
H2       0.46502    0.42666    0.75016   1.00
H2       0.42927    0.42850    0.78839   1.00
H2       0.42744    0.46342    0.74940   1.00
C3b      0.52388    0.52528    0.79244   1.00
C5       0.55147    0.55306    0.77233   1.00
H2       0.53489    0.57331    0.75330   1.00
H2       0.56843    0.57084    0.79345   1.00
H2       0.57246    0.53655    0.75406   1.00
C4       0.49940    0.49983    0.77127   1.00
C4       0.50060    0.50017    0.72873   1.00
C3b      0.52678    0.47528    0.70899   1.00
C5       0.55379    0.44809    0.73063   1.00
H2       0.53662    0.42747    0.74871   1.00
H2       0.57230    0.43071    0.71051   1.00
H2       0.57336    0.46505    0.75005   1.00
C3b      0.47555    0.52539    0.70796   1.00
C5       0.44735    0.55224    0.72848   1.00
H2       0.46348    0.57256    0.74783   1.00
H2       0.42999    0.56995    0.70765   1.00
H2       0.42674    0.53498    0.74650   1.00
C3a      0.52763    0.47588    0.66845   1.00
H1       0.54765    0.45686    0.65300   1.00
C3a      0.47697    0.52545    0.66743   1.00
H1       0.45785    0.54472    0.65119   1.00
C2       0.50287    0.50083    0.64757   1.00
C2       0.49713    1.00083    0.64757   1.00
C3a      0.47293    1.02600    0.66884   1.00
H1       0.45335    1.04570    0.65369   1.00
C3a      0.52247    0.97533    0.66704   1.00
H1       0.54116    0.95588    0.65051   1.00
C3b      0.47379    1.02595    0.70938   1.00
C5       0.44739    1.05339    0.73144   1.00
H2       0.46502    1.07334    0.74984   1.00
H2       0.42927    1.07150    0.71161   1.00
H2       0.42744    1.03658    0.75060   1.00
C3b      0.52388    0.97472    0.70756   1.00
C5       0.55147    0.94694    0.72767   1.00
H2       0.53489    0.92669    0.74670   1.00
H2       0.56843    0.92916    0.70655   1.00
H2       0.57246    0.96345    0.74594   1.00
C4       0.49940    1.00017    0.72873   1.00
C4       0.50060    0.99983    0.77127   1.00
C3b      0.52678    1.02472    0.79101   1.00
C5       0.55379    1.05191    0.76937   1.00
H2       0.53662    1.07253    0.75129   1.00
H2       0.57230    1.06929    0.78949   1.00
H2       0.57336    1.03495    0.74995   1.00
C3b      0.47555    0.97461    0.79204   1.00
C5       0.44735    0.94776    0.77152   1.00
H2       0.46348    0.92744    0.75217   1.00
H2       0.42999    0.93005    0.79235   1.00
H2       0.42674    0.96502    0.75350   1.00
C3a      0.52763    1.02412    0.83155   1.00
H1       0.54765    1.04314    0.84700   1.00
C3a      0.47697    0.97455    0.83257   1.00
H1       0.45785    0.95528    0.84881   1.00
C2       0.50287    0.99917    0.85243   1.00
C2       0.50083    1.14757    0.49713   1.00
C3a      0.52600    1.16884    0.47293   1.00
H1       0.54570    1.15369    0.45335   1.00
C3a      0.47533    1.16704    0.52247   1.00
H1       0.45588    1.15051    0.54116   1.00
C3b      0.52595    1.20938    0.47379   1.00
C5       0.55339    1.23144    0.44739   1.00
H2       0.57334    1.24984    0.46502   1.00
H2       0.57150    1.21161    0.42927   1.00
H2       0.53658    1.25060    0.42744   1.00
C3b      0.47472    1.20756    0.52388   1.00
C5       0.44694    1.22767    0.55147   1.00
H2       0.42669    1.24670    0.53489   1.00
H2       0.42916    1.20655    0.56843   1.00
H2       0.46345    1.24594    0.57246   1.00
C4       0.50017    1.22873    0.49940   1.00
C4       0.49983    1.27127    0.50060   1.00
C3b      0.52472    1.29101    0.52678   1.00
C5       0.55191    1.26937    0.55379   1.00
H2       0.57253    1.25129    0.53662   1.00
H2       0.56929    1.28949    0.57230   1.00
H2       0.53495    1.24995    0.57336   1.00
C3b      0.47461    1.29204    0.47555   1.00
C5       0.44776    1.27152    0.44735   1.00
H2       0.42744    1.25217    0.46348   1.00
H2       0.43005    1.29235    0.42999   1.00
H2       0.46502    1.25350    0.42674   1.00
C3a      0.52412    1.33155    0.52763   1.00
H1       0.54314    1.34700    0.54765   1.00
C3a      0.47455    1.33257    0.47697   1.00
H1       0.45528    1.34881    0.45785   1.00
C2       0.49917    1.35243    0.50287   1.00
C2       0.35243    0.99713    0.49917   1.00
C3a      0.33116    0.97293    0.47400   1.00
H1       0.34631    0.95335    0.45430   1.00
C3a      0.33296    1.02247    0.52467   1.00
H1       0.34949    1.04116    0.54412   1.00
C3b      0.29062    0.97379    0.47405   1.00
C5       0.26856    0.94739    0.44661   1.00
H2       0.25016    0.96502    0.42666   1.00
H2       0.28839    0.92927    0.42850   1.00
H2       0.24940    0.92744    0.46342   1.00
C3b      0.29244    1.02388    0.52528   1.00
C5       0.27233    1.05147    0.55306   1.00
H2       0.25330    1.03489    0.57331   1.00
H2       0.29345    1.06843    0.57084   1.00
H2       0.25406    1.07246    0.53655   1.00
C4       0.27127    0.99940    0.49983   1.00
C4       0.22873    1.00060    0.50017   1.00
C3b      0.20899    1.02678    0.47528   1.00
C5       0.23063    1.05379    0.44809   1.00
H2       0.24871    1.03662    0.42747   1.00
H2       0.21051    1.07230    0.43071   1.00
H2       0.25005    1.07336    0.46505   1.00
C3b      0.20796    0.97555    0.52539   1.00
C5       0.22848    0.94735    0.55224   1.00
H2       0.24783    0.96348    0.57256   1.00
H2       0.20765    0.92999    0.56995   1.00
H2       0.24650    0.92674    0.53498   1.00
C3a      0.16845    1.02763    0.47588   1.00
H1       0.15300    1.04765    0.45686   1.00
C3a      0.16743    0.97697    0.52545   1.00
H1       0.15119    0.95785    0.54472   1.00
C2       0.14757    1.00287    0.50083   1.00
C2       0.64757    0.99713    0.50083   1.00
C3a      0.66884    0.97293    0.52600   1.00
H1       0.65369    0.95335    0.54570   1.00
C3a      0.66704    1.02247    0.47533   1.00
H1       0.65051    1.04116    0.45588   1.00
C3b      0.70938    0.97379    0.52595   1.00
C5       0.73144    0.94739    0.55339   1.00
H2       0.74984    0.96502    0.57334   1.00
H2       0.71161    0.92927    0.57150   1.00
H2       0.75060    0.92744    0.53658   1.00
C3b      0.70756    1.02388    0.47472   1.00
C5       0.72767    1.05147    0.44694   1.00
H2       0.74670    1.03489    0.42669   1.00
H2       0.70655    1.06843    0.42916   1.00
H2       0.74594    1.07246    0.46345   1.00
C4       0.72873    0.99940    0.50017   1.00
C4       0.77127    1.00060    0.49983   1.00
C3b      0.79101    1.02678    0.52472   1.00
C5       0.76937    1.05379    0.55191   1.00
H2       0.75129    1.03662    0.57253   1.00
H2       0.78949    1.07230    0.56929   1.00
H2       0.74995    1.07336    0.53495   1.00
C3b      0.79204    0.97555    0.47461   1.00
C5       0.77152    0.94735    0.44776   1.00
H2       0.75217    0.96348    0.42744   1.00
H2       0.79235    0.92999    0.43005   1.00
H2       0.75350    0.92674    0.46502   1.00
C3a      0.83155    1.02763    0.52412   1.00
H1       0.84700    1.04765    0.54314   1.00
C3a      0.83257    0.97697    0.47455   1.00
H1       0.84881    0.95785    0.45528   1.00
C2       0.85243    1.00287    0.49917   1.00
C2       0.49917    0.85243    0.49713   1.00
C3a      0.47400    0.83116    0.47293   1.00
H1       0.45430    0.84631    0.45335   1.00
C3a      0.52467    0.83296    0.52247   1.00
H1       0.54412    0.84949    0.54116   1.00
C3b      0.47405    0.79062    0.47379   1.00
C5       0.44661    0.76856    0.44739   1.00
H2       0.42666    0.75016    0.46502   1.00
H2       0.42850    0.78839    0.42927   1.00
H2       0.46342    0.74940    0.42744   1.00
C3b      0.52528    0.79244    0.52388   1.00
C5       0.55306    0.77233    0.55147   1.00
H2       0.57331    0.75330    0.53489   1.00
H2       0.57084    0.79345    0.56843   1.00
H2       0.53655    0.75406    0.57246   1.00
C4       0.49983    0.77127    0.49940   1.00
C4       0.50017    0.72873    0.50060   1.00
C3b      0.47528    0.70899    0.52678   1.00
C5       0.44809    0.73063    0.55379   1.00
H2       0.42747    0.74871    0.53662   1.00
H2       0.43071    0.71051    0.57230   1.00
H2       0.46505    0.75005    0.57336   1.00
C3b      0.52539    0.70796    0.47555   1.00
C5       0.55224    0.72848    0.44735   1.00
H2       0.57256    0.74783    0.46348   1.00
H2       0.56995    0.70765    0.42999   1.00
H2       0.53498    0.74650    0.42674   1.00
C3a      0.47588    0.66845    0.52763   1.00
H1       0.45686    0.65300    0.54765   1.00
C3a      0.52545    0.66743    0.47697   1.00
H1       0.54472    0.65119    0.45785   1.00
C2       0.50083    0.64757    0.50287   1.00
C2       0.49713    0.99917    0.35243   1.00
C3a      0.47293    0.97400    0.33116   1.00
H1       0.45335    0.95430    0.34631   1.00
C3a      0.52247    1.02467    0.33296   1.00
H1       0.54116    1.04412    0.34949   1.00
C3b      0.47379    0.97405    0.29062   1.00
C5       0.44739    0.94661    0.26856   1.00
H2       0.46502    0.92666    0.25016   1.00
H2       0.42927    0.92850    0.28839   1.00
H2       0.42744    0.96342    0.24940   1.00
C3b      0.52388    1.02528    0.29244   1.00
C5       0.55147    1.05306    0.27233   1.00
H2       0.53489    1.07331    0.25330   1.00
H2       0.56843    1.07084    0.29345   1.00
H2       0.57246    1.03655    0.25406   1.00
C4       0.49940    0.99983    0.27127   1.00
C4       0.50060    1.00017    0.22873   1.00
C3b      0.52678    0.97528    0.20899   1.00
C5       0.55379    0.94809    0.23063   1.00
H2       0.53662    0.92747    0.24871   1.00
H2       0.57230    0.93071    0.21051   1.00
H2       0.57336    0.96505    0.25005   1.00
C3b      0.47555    1.02539    0.20796   1.00
C5       0.44735    1.05224    0.22848   1.00
H2       0.46348    1.07256    0.24783   1.00
H2       0.42999    1.06995    0.20765   1.00
H2       0.42674    1.03498    0.24650   1.00
C3a      0.52763    0.97588    0.16845   1.00
H1       0.54765    0.95686    0.15300   1.00
C3a      0.47697    1.02545    0.16743   1.00
H1       0.45785    1.04472    0.15119   1.00
C2       0.50287    1.00083    0.14757   1.00
C2       0.99713    0.50083    0.64757   1.00
C3a      0.97293    0.52600    0.66884   1.00
H1       0.95335    0.54570    0.65369   1.00
C3a      1.02247    0.47533    0.66704   1.00
H1       1.04116    0.45588    0.65051   1.00
C3b      0.97379    0.52595    0.70938   1.00
C5       0.94739    0.55339    0.73144   1.00
H2       0.96502    0.57334    0.74984   1.00
H2       0.92927    0.57150    0.71161   1.00
H2       0.92744    0.53658    0.75060   1.00
C3b      1.02388    0.47472    0.70756   1.00
C5       1.05147    0.44694    0.72767   1.00
H2       1.03489    0.42669    0.74670   1.00
H2       1.06843    0.42916    0.70655   1.00
H2       1.07246    0.46345    0.74594   1.00
C4       0.99940    0.50017    0.72873   1.00
C4       1.00060    0.49983    0.77127   1.00
C3b      1.02678    0.52472    0.79101   1.00
C5       1.05379    0.55191    0.76937   1.00
H2       1.03662    0.57253    0.75129   1.00
H2       1.07230    0.56929    0.78949   1.00
H2       1.07336    0.53495    0.74995   1.00
C3b      0.97555    0.47461    0.79204   1.00
C5       0.94735    0.44776    0.77152   1.00
H2       0.96348    0.42744    0.75217   1.00
H2       0.92999    0.43005    0.79235   1.00
H2       0.92674    0.46502    0.75350   1.00
C3a      1.02763    0.52412    0.83155   1.00
H1       1.04765    0.54314    0.84700   1.00
C3a      0.97697    0.47455    0.83257   1.00
H1       0.95785    0.45528    0.84881   1.00
C2       1.00287    0.49917    0.85243   1.00
C2       1.00083    0.64757    0.49713   1.00
C3a      1.02600    0.66884    0.47293   1.00
H1       1.04570    0.65369    0.45335   1.00
C3a      0.97533    0.66704    0.52247   1.00
H1       0.95588    0.65051    0.54116   1.00
C3b      1.02595    0.70938    0.47379   1.00
C5       1.05339    0.73144    0.44739   1.00
H2       1.07334    0.74984    0.46502   1.00
H2       1.07150    0.71161    0.42927   1.00
H2       1.03658    0.75060    0.42744   1.00
C3b      0.97472    0.70756    0.52388   1.00
C5       0.94694    0.72767    0.55147   1.00
H2       0.92669    0.74670    0.53489   1.00
H2       0.92916    0.70655    0.56843   1.00
H2       0.96345    0.74594    0.57246   1.00
C4       1.00017    0.72873    0.49940   1.00
C4       0.99983    0.77127    0.50060   1.00
C3b      1.02472    0.79101    0.52678   1.00
C5       1.05191    0.76937    0.55379   1.00
H2       1.07253    0.75129    0.53662   1.00
H2       1.06929    0.78949    0.57230   1.00
H2       1.03495    0.74995    0.57336   1.00
C3b      0.97461    0.79204    0.47555   1.00
C5       0.94776    0.77152    0.44735   1.00
H2       0.92744    0.75217    0.46348   1.00
H2       0.93005    0.79235    0.42999   1.00
H2       0.96502    0.75350    0.42674   1.00
C3a      1.02412    0.83155    0.52763   1.00
H1       1.04314    0.84700    0.54765   1.00
C3a      0.97455    0.83257    0.47697   1.00
H1       0.95528    0.84881    0.45785   1.00
C2       0.99917    0.85243    0.50287   1.00
C2       0.85243    0.49713    0.49917   1.00
C3a      0.83116    0.47293    0.47400   1.00
H1       0.84631    0.45335    0.45430   1.00
C3a      0.83296    0.52247    0.52467   1.00
H1       0.84949    0.54116    0.54412   1.00
C3b      0.79062    0.47379    0.47405   1.00
C5       0.76856    0.44739    0.44661   1.00
H2       0.75016    0.46502    0.42666   1.00
H2       0.78839    0.42927    0.42850   1.00
H2       0.74940    0.42744    0.46342   1.00
C3b      0.79244    0.52388    0.52528   1.00
C5       0.77233    0.55147    0.55306   1.00
H2       0.75330    0.53489    0.57331   1.00
H2       0.79345    0.56843    0.57084   1.00
H2       0.75406    0.57246    0.53655   1.00
C4       0.77127    0.49940    0.49983   1.00
C4       0.72873    0.50060    0.50017   1.00
C3b      0.70899    0.52678    0.47528   1.00
C5       0.73063    0.55379    0.44809   1.00
H2       0.74871    0.53662    0.42747   1.00
H2       0.71051    0.57230    0.43071   1.00
H2       0.75005    0.57336    0.46505   1.00
C3b      0.70796    0.47555    0.52539   1.00
C5       0.72848    0.44735    0.55224   1.00
H2       0.74783    0.46348    0.57256   1.00
H2       0.70765    0.42999    0.56995   1.00
H2       0.74650    0.42674    0.53498   1.00
C3a      0.66845    0.52763    0.47588   1.00
H1       0.65300    0.54765    0.45686   1.00
C3a      0.66743    0.47697    0.52545   1.00
H1       0.65119    0.45785    0.54472   1.00
C2       0.64757    0.50287    0.50083   1.00
C2       1.14757    0.49713    0.50083   1.00
C3a      1.16884    0.47293    0.52600   1.00
H1       1.15369    0.45335    0.54570   1.00
C3a      1.16704    0.52247    0.47533   1.00
H1       1.15051    0.54116    0.45588   1.00
C3b      1.20938    0.47379    0.52595   1.00
C5       1.23144    0.44739    0.55339   1.00
H2       1.24984    0.46502    0.57334   1.00
H2       1.21161    0.42927    0.57150   1.00
H2       1.25060    0.42744    0.53658   1.00
C3b      1.20756    0.52388    0.47472   1.00
C5       1.22767    0.55147    0.44694   1.00
H2       1.24670    0.53489    0.42669   1.00
H2       1.20655    0.56843    0.42916   1.00
H2       1.24594    0.57246    0.46345   1.00
C4       1.22873    0.49940    0.50017   1.00
C4       1.27127    0.50060    0.49983   1.00
C3b      1.29101    0.52678    0.52472   1.00
C5       1.26937    0.55379    0.55191   1.00
H2       1.25129    0.53662    0.57253   1.00
H2       1.28949    0.57230    0.56929   1.00
H2       1.24995    0.57336    0.53495   1.00
C3b      1.29204    0.47555    0.47461   1.00
C5       1.27152    0.44735    0.44776   1.00
H2       1.25217    0.46348    0.42744   1.00
H2       1.29235    0.42999    0.43005   1.00
H2       1.25350    0.42674    0.46502   1.00
C3a      1.33155    0.52763    0.52412   1.00
H1       1.34700    0.54765    0.54314   1.00
C3a      1.33257    0.47697    0.47455   1.00
H1       1.34881    0.45785    0.45528   1.00
C2       1.35243    0.50287    0.49917   1.00
C2       0.99917    0.35243    0.49713   1.00
C3a      0.97400    0.33116    0.47293   1.00
H1       0.95430    0.34631    0.45335   1.00
C3a      1.02467    0.33296    0.52247   1.00
H1       1.04412    0.34949    0.54116   1.00
C3b      0.97405    0.29062    0.47379   1.00
C5       0.94661    0.26856    0.44739   1.00
H2       0.92666    0.25016    0.46502   1.00
H2       0.92850    0.28839    0.42927   1.00
H2       0.96342    0.24940    0.42744   1.00
C3b      1.02528    0.29244    0.52388   1.00
C5       1.05306    0.27233    0.55147   1.00
H2       1.07331    0.25330    0.53489   1.00
H2       1.07084    0.29345    0.56843   1.00
H2       1.03655    0.25406    0.57246   1.00
C4       0.99983    0.27127    0.49940   1.00
C4       1.00017    0.22873    0.50060   1.00
C3b      0.97528    0.20899    0.52678   1.00
C5       0.94809    0.23063    0.55379   1.00
H2       0.92747    0.24871    0.53662   1.00
H2       0.93071    0.21051    0.57230   1.00
H2       0.96505    0.25005    0.57336   1.00
C3b      1.02539    0.20796    0.47555   1.00
C5       1.05224    0.22848    0.44735   1.00
H2       1.07256    0.24783    0.46348   1.00
H2       1.06995    0.20765    0.42999   1.00
H2       1.03498    0.24650    0.42674   1.00
C3a      0.97588    0.16845    0.52763   1.00
H1       0.95686    0.15300    0.54765   1.00
C3a      1.02545    0.16743    0.47697   1.00
H1       1.04472    0.15119    0.45785   1.00
C2       1.00083    0.14757    0.50287   1.00
C2       0.99713    0.49917    0.35243   1.00
C3a      0.97293    0.47400    0.33116   1.00
H1       0.95335    0.45430    0.34631   1.00
C3a      1.02247    0.52467    0.33296   1.00
H1       1.04116    0.54412    0.34949   1.00
C3b      0.97379    0.47405    0.29062   1.00
C5       0.94739    0.44661    0.26856   1.00
H2       0.96502    0.42666    0.25016   1.00
H2       0.92927    0.42850    0.28839   1.00
H2       0.92744    0.46342    0.24940   1.00
C3b      1.02388    0.52528    0.29244   1.00
C5       1.05147    0.55306    0.27233   1.00
H2       1.03489    0.57331    0.25330   1.00
H2       1.06843    0.57084    0.29345   1.00
H2       1.07246    0.53655    0.25406   1.00
C4       0.99940    0.49983    0.27127   1.00
C4       1.00060    0.50017    0.22873   1.00
C3b      1.02678    0.47528    0.20899   1.00
C5       1.05379    0.44809    0.23063   1.00
H2       1.03662    0.42747    0.24871   1.00
H2       1.07230    0.43071    0.21051   1.00
H2       1.07336    0.46505    0.25005   1.00
C3b      0.97555    0.52539    0.20796   1.00
C5       0.94735    0.55224    0.22848   1.00
H2       0.96348    0.57256    0.24783   1.00
H2       0.92999    0.56995    0.20765   1.00
H2       0.92674    0.53498    0.24650   1.00
C3a      1.02763    0.47588    0.16845   1.00
H1       1.04765    0.45686    0.15300   1.00
C3a      0.97697    0.52545    0.16743   1.00
H1       0.95785    0.54472    0.15119   1.00
C2       1.00287    0.50083    0.14757   1.00
