data_IRMOF10_SG202_interpen_Ligand7lp_label_b.

_audit_creation_method             'generated by an auxiliary program of Tobunporous'

_symmetry_space_group_name_H-M     'P 1'
_symmetry_Int_Tables_number        1
_symmetry_cell_setting             triclinic

_cell_length_a                    34.2800
_cell_length_b                    34.2800
_cell_length_c                    34.2800
_cell_angle_alpha                 90.0000
_cell_angle_beta                  90.0000
_cell_angle_gamma                 90.0000

loop_
_atom_site_label
_atom_site_fract_x
_atom_site_fract_y
_atom_site_fract_z
_atom_site_occupancy
O1       0.75000    0.75000    0.75000   1.00
Zn1      0.71720    0.78280    0.78280   1.00
Zn1      0.78280    0.71720    0.78280   1.00
Zn1      0.78280    0.78280    0.71720   1.00
Zn1      0.71720    0.71720    0.71720   1.00
O2       0.72650    0.77350    0.83820   1.00
O2       0.72650    0.83820    0.77350   1.00
O2       0.66180    0.77350    0.77350   1.00
O2       0.77350    0.72650    0.83820   1.00
O2       0.83820    0.72650    0.77350   1.00
O2       0.77350    0.66180    0.77350   1.00
O2       0.77350    0.83820    0.72650   1.00
O2       0.83820    0.77350    0.72650   1.00
O2       0.77350    0.77350    0.66180   1.00
O2       0.66180    0.72650    0.72650   1.00
O2       0.72650    0.66180    0.72650   1.00
O2       0.72650    0.72650    0.66180   1.00
C1       0.75000    0.75000    0.85520   1.00
C1       0.75000    0.85520    0.75000   1.00
C1       0.64480    0.75000    0.75000   1.00
C1       0.85520    0.75000    0.75000   1.00
C1       0.75000    0.64480    0.75000   1.00
C1       0.75000    0.75000    0.64480   1.00
O1       0.25000    0.25000    0.75000   1.00
Zn1      0.21720    0.28280    0.78280   1.00
Zn1      0.28280    0.21720    0.78280   1.00
Zn1      0.28280    0.28280    0.71720   1.00
Zn1      0.21720    0.21720    0.71720   1.00
O2       0.22650    0.27350    0.83820   1.00
O2       0.22650    0.33820    0.77350   1.00
O2       0.16180    0.27350    0.77350   1.00
O2       0.27350    0.22650    0.83820   1.00
O2       0.33820    0.22650    0.77350   1.00
O2       0.27350    0.16180    0.77350   1.00
O2       0.27350    0.33820    0.72650   1.00
O2       0.33820    0.27350    0.72650   1.00
O2       0.27350    0.27350    0.66180   1.00
O2       0.16180    0.22650    0.72650   1.00
O2       0.22650    0.16180    0.72650   1.00
O2       0.22650    0.22650    0.66180   1.00
C1       0.25000    0.25000    0.85520   1.00
C1       0.25000    0.35520    0.75000   1.00
C1       0.14480    0.25000    0.75000   1.00
C1       0.35520    0.25000    0.75000   1.00
C1       0.25000    0.14480    0.75000   1.00
C1       0.25000    0.25000    0.64480   1.00
O1       0.25000    0.75000    0.25000   1.00
Zn1      0.21720    0.78280    0.28280   1.00
Zn1      0.28280    0.71720    0.28280   1.00
Zn1      0.28280    0.78280    0.21720   1.00
Zn1      0.21720    0.71720    0.21720   1.00
O2       0.22650    0.77350    0.33820   1.00
O2       0.22650    0.83820    0.27350   1.00
O2       0.16180    0.77350    0.27350   1.00
O2       0.27350    0.72650    0.33820   1.00
O2       0.33820    0.72650    0.27350   1.00
O2       0.27350    0.66180    0.27350   1.00
O2       0.27350    0.83820    0.22650   1.00
O2       0.33820    0.77350    0.22650   1.00
O2       0.27350    0.77350    0.16180   1.00
O2       0.16180    0.72650    0.22650   1.00
O2       0.22650    0.66180    0.22650   1.00
O2       0.22650    0.72650    0.16180   1.00
C1       0.25000    0.75000    0.35520   1.00
C1       0.25000    0.85520    0.25000   1.00
C1       0.14480    0.75000    0.25000   1.00
C1       0.35520    0.75000    0.25000   1.00
C1       0.25000    0.64480    0.25000   1.00
C1       0.25000    0.75000    0.14480   1.00
O1       0.75000    0.25000    0.25000   1.00
Zn1      0.71720    0.28280    0.28280   1.00
Zn1      0.78280    0.21720    0.28280   1.00
Zn1      0.78280    0.28280    0.21720   1.00
Zn1      0.71720    0.21720    0.21720   1.00
O2       0.72650    0.27350    0.33820   1.00
O2       0.72650    0.33820    0.27350   1.00
O2       0.66180    0.27350    0.27350   1.00
O2       0.77350    0.22650    0.33820   1.00
O2       0.83820    0.22650    0.27350   1.00
O2       0.77350    0.16180    0.27350   1.00
O2       0.77350    0.33820    0.22650   1.00
O2       0.83820    0.27350    0.22650   1.00
O2       0.77350    0.27350    0.16180   1.00
O2       0.66180    0.22650    0.22650   1.00
O2       0.72650    0.16180    0.22650   1.00
O2       0.72650    0.22650    0.16180   1.00
C1       0.75000    0.25000    0.35520   1.00
C1       0.75000    0.35520    0.25000   1.00
C1       0.64480    0.25000    0.25000   1.00
C1       0.85520    0.25000    0.25000   1.00
C1       0.75000    0.14480    0.25000   1.00
C1       0.75000    0.25000    0.14480   1.00
O1       0.25000    0.25000    0.25000   1.00
Zn1      0.28280    0.21720    0.21720   1.00
Zn1      0.21720    0.28280    0.21720   1.00
Zn1      0.21720    0.21720    0.28280   1.00
Zn1      0.28280    0.28280    0.28280   1.00
O2       0.27350    0.22650    0.16180   1.00
O2       0.27350    0.16180    0.22650   1.00
O2       0.33820    0.22650    0.22650   1.00
O2       0.22650    0.27350    0.16180   1.00
O2       0.16180    0.27350    0.22650   1.00
O2       0.22650    0.33820    0.22650   1.00
O2       0.22650    0.16180    0.27350   1.00
O2       0.16180    0.22650    0.27350   1.00
O2       0.22650    0.22650    0.33820   1.00
O2       0.33820    0.27350    0.27350   1.00
O2       0.27350    0.33820    0.27350   1.00
O2       0.27350    0.27350    0.33820   1.00
C1       0.25000    0.25000    0.14480   1.00
C1       0.25000    0.14480    0.25000   1.00
C1       0.35520    0.25000    0.25000   1.00
C1       0.14480    0.25000    0.25000   1.00
C1       0.25000    0.35520    0.25000   1.00
C1       0.25000    0.25000    0.35520   1.00
O1       0.75000    0.75000    0.25000   1.00
Zn1      0.78280    0.71720    0.21720   1.00
Zn1      0.71720    0.78280    0.21720   1.00
Zn1      0.71720    0.71720    0.28280   1.00
Zn1      0.78280    0.78280    0.28280   1.00
O2       0.77350    0.72650    0.16180   1.00
O2       0.77350    0.66180    0.22650   1.00
O2       0.83820    0.72650    0.22650   1.00
O2       0.72650    0.77350    0.16180   1.00
O2       0.66180    0.77350    0.22650   1.00
O2       0.72650    0.83820    0.22650   1.00
O2       0.72650    0.66180    0.27350   1.00
O2       0.66180    0.72650    0.27350   1.00
O2       0.72650    0.72650    0.33820   1.00
O2       0.83820    0.77350    0.27350   1.00
O2       0.77350    0.83820    0.27350   1.00
O2       0.77350    0.77350    0.33820   1.00
C1       0.75000    0.75000    0.14480   1.00
C1       0.75000    0.64480    0.25000   1.00
C1       0.85520    0.75000    0.25000   1.00
C1       0.64480    0.75000    0.25000   1.00
C1       0.75000    0.85520    0.25000   1.00
C1       0.75000    0.75000    0.35520   1.00
O1       0.75000    0.25000    0.75000   1.00
Zn1      0.78280    0.21720    0.71720   1.00
Zn1      0.71720    0.28280    0.71720   1.00
Zn1      0.71720    0.21720    0.78280   1.00
Zn1      0.78280    0.28280    0.78280   1.00
O2       0.77350    0.22650    0.66180   1.00
O2       0.77350    0.16180    0.72650   1.00
O2       0.83820    0.22650    0.72650   1.00
O2       0.72650    0.27350    0.66180   1.00
O2       0.66180    0.27350    0.72650   1.00
O2       0.72650    0.33820    0.72650   1.00
O2       0.72650    0.16180    0.77350   1.00
O2       0.66180    0.22650    0.77350   1.00
O2       0.72650    0.22650    0.83820   1.00
O2       0.83820    0.27350    0.77350   1.00
O2       0.77350    0.33820    0.77350   1.00
O2       0.77350    0.27350    0.83820   1.00
C1       0.75000    0.25000    0.64480   1.00
C1       0.75000    0.14480    0.75000   1.00
C1       0.85520    0.25000    0.75000   1.00
C1       0.64480    0.25000    0.75000   1.00
C1       0.75000    0.35520    0.75000   1.00
C1       0.75000    0.25000    0.85520   1.00
O1       0.25000    0.75000    0.75000   1.00
Zn1      0.28280    0.71720    0.71720   1.00
Zn1      0.21720    0.78280    0.71720   1.00
Zn1      0.21720    0.71720    0.78280   1.00
Zn1      0.28280    0.78280    0.78280   1.00
O2       0.27350    0.72650    0.66180   1.00
O2       0.27350    0.66180    0.72650   1.00
O2       0.33820    0.72650    0.72650   1.00
O2       0.22650    0.77350    0.66180   1.00
O2       0.16180    0.77350    0.72650   1.00
O2       0.22650    0.83820    0.72650   1.00
O2       0.22650    0.66180    0.77350   1.00
O2       0.16180    0.72650    0.77350   1.00
O2       0.22650    0.72650    0.83820   1.00
O2       0.33820    0.77350    0.77350   1.00
O2       0.27350    0.83820    0.77350   1.00
O2       0.27350    0.77350    0.83820   1.00
C1       0.25000    0.75000    0.64480   1.00
C1       0.25000    0.64480    0.75000   1.00
C1       0.35520    0.75000    0.75000   1.00
C1       0.14480    0.75000    0.75000   1.00
C1       0.25000    0.85520    0.75000   1.00
C1       0.25000    0.75000    0.85520   1.00
O1       1.00000    1.00000    1.00000   1.00
Zn1      0.96720    1.03280    1.03280   1.00
Zn1      1.03280    0.96720    1.03280   1.00
Zn1      1.03280    1.03280    0.96720   1.00
Zn1      0.96720    0.96720    0.96720   1.00
O2       0.97650    1.02350    1.08820   1.00
O2       0.97650    1.08820    1.02350   1.00
O2       0.91180    1.02350    1.02350   1.00
O2       1.02350    0.97650    1.08820   1.00
O2       1.08820    0.97650    1.02350   1.00
O2       1.02350    0.91180    1.02350   1.00
O2       1.02350    1.08820    0.97650   1.00
O2       1.08820    1.02350    0.97650   1.00
O2       1.02350    1.02350    0.91180   1.00
O2       0.91180    0.97650    0.97650   1.00
O2       0.97650    0.91180    0.97650   1.00
O2       0.97650    0.97650    0.91180   1.00
C1       1.00000    1.00000    1.10520   1.00
C1       1.00000    1.10520    1.00000   1.00
C1       0.89480    1.00000    1.00000   1.00
C1       1.10520    1.00000    1.00000   1.00
C1       1.00000    0.89480    1.00000   1.00
C1       1.00000    1.00000    0.89480   1.00
O1       0.50000    0.50000    1.00000   1.00
Zn1      0.46720    0.53280    1.03280   1.00
Zn1      0.53280    0.46720    1.03280   1.00
Zn1      0.53280    0.53280    0.96720   1.00
Zn1      0.46720    0.46720    0.96720   1.00
O2       0.47650    0.52350    1.08820   1.00
O2       0.47650    0.58820    1.02350   1.00
O2       0.41180    0.52350    1.02350   1.00
O2       0.52350    0.47650    1.08820   1.00
O2       0.58820    0.47650    1.02350   1.00
O2       0.52350    0.41180    1.02350   1.00
O2       0.52350    0.58820    0.97650   1.00
O2       0.58820    0.52350    0.97650   1.00
O2       0.52350    0.52350    0.91180   1.00
O2       0.41180    0.47650    0.97650   1.00
O2       0.47650    0.41180    0.97650   1.00
O2       0.47650    0.47650    0.91180   1.00
C1       0.50000    0.50000    1.10520   1.00
C1       0.50000    0.60520    1.00000   1.00
C1       0.39480    0.50000    1.00000   1.00
C1       0.60520    0.50000    1.00000   1.00
C1       0.50000    0.39480    1.00000   1.00
C1       0.50000    0.50000    0.89480   1.00
O1       0.50000    1.00000    0.50000   1.00
Zn1      0.46720    1.03280    0.53280   1.00
Zn1      0.53280    0.96720    0.53280   1.00
Zn1      0.53280    1.03280    0.46720   1.00
Zn1      0.46720    0.96720    0.46720   1.00
O2       0.47650    1.02350    0.58820   1.00
O2       0.47650    1.08820    0.52350   1.00
O2       0.41180    1.02350    0.52350   1.00
O2       0.52350    0.97650    0.58820   1.00
O2       0.58820    0.97650    0.52350   1.00
O2       0.52350    0.91180    0.52350   1.00
O2       0.52350    1.08820    0.47650   1.00
O2       0.58820    1.02350    0.47650   1.00
O2       0.52350    1.02350    0.41180   1.00
O2       0.41180    0.97650    0.47650   1.00
O2       0.47650    0.91180    0.47650   1.00
O2       0.47650    0.97650    0.41180   1.00
C1       0.50000    1.00000    0.60520   1.00
C1       0.50000    1.10520    0.50000   1.00
C1       0.39480    1.00000    0.50000   1.00
C1       0.60520    1.00000    0.50000   1.00
C1       0.50000    0.89480    0.50000   1.00
C1       0.50000    1.00000    0.39480   1.00
O1       1.00000    0.50000    0.50000   1.00
Zn1      0.96720    0.53280    0.53280   1.00
Zn1      1.03280    0.46720    0.53280   1.00
Zn1      1.03280    0.53280    0.46720   1.00
Zn1      0.96720    0.46720    0.46720   1.00
O2       0.97650    0.52350    0.58820   1.00
O2       0.97650    0.58820    0.52350   1.00
O2       0.91180    0.52350    0.52350   1.00
O2       1.02350    0.47650    0.58820   1.00
O2       1.08820    0.47650    0.52350   1.00
O2       1.02350    0.41180    0.52350   1.00
O2       1.02350    0.58820    0.47650   1.00
O2       1.08820    0.52350    0.47650   1.00
O2       1.02350    0.52350    0.41180   1.00
O2       0.91180    0.47650    0.47650   1.00
O2       0.97650    0.41180    0.47650   1.00
O2       0.97650    0.47650    0.41180   1.00
C1       1.00000    0.50000    0.60520   1.00
C1       1.00000    0.60520    0.50000   1.00
C1       0.89480    0.50000    0.50000   1.00
C1       1.10520    0.50000    0.50000   1.00
C1       1.00000    0.39480    0.50000   1.00
C1       1.00000    0.50000    0.39480   1.00
O1       0.50000    0.50000    0.50000   1.00
Zn1      0.53280    0.46720    0.46720   1.00
Zn1      0.46720    0.53280    0.46720   1.00
Zn1      0.46720    0.46720    0.53280   1.00
Zn1      0.53280    0.53280    0.53280   1.00
O2       0.52350    0.47650    0.41180   1.00
O2       0.52350    0.41180    0.47650   1.00
O2       0.58820    0.47650    0.47650   1.00
O2       0.47650    0.52350    0.41180   1.00
O2       0.41180    0.52350    0.47650   1.00
O2       0.47650    0.58820    0.47650   1.00
O2       0.47650    0.41180    0.52350   1.00
O2       0.41180    0.47650    0.52350   1.00
O2       0.47650    0.47650    0.58820   1.00
O2       0.58820    0.52350    0.52350   1.00
O2       0.52350    0.58820    0.52350   1.00
O2       0.52350    0.52350    0.58820   1.00
C1       0.50000    0.50000    0.39480   1.00
C1       0.50000    0.39480    0.50000   1.00
C1       0.60520    0.50000    0.50000   1.00
C1       0.39480    0.50000    0.50000   1.00
C1       0.50000    0.60520    0.50000   1.00
C1       0.50000    0.50000    0.60520   1.00
O1       1.00000    1.00000    0.50000   1.00
Zn1      1.03280    0.96720    0.46720   1.00
Zn1      0.96720    1.03280    0.46720   1.00
Zn1      0.96720    0.96720    0.53280   1.00
Zn1      1.03280    1.03280    0.53280   1.00
O2       1.02350    0.97650    0.41180   1.00
O2       1.02350    0.91180    0.47650   1.00
O2       1.08820    0.97650    0.47650   1.00
O2       0.97650    1.02350    0.41180   1.00
O2       0.91180    1.02350    0.47650   1.00
O2       0.97650    1.08820    0.47650   1.00
O2       0.97650    0.91180    0.52350   1.00
O2       0.91180    0.97650    0.52350   1.00
O2       0.97650    0.97650    0.58820   1.00
O2       1.08820    1.02350    0.52350   1.00
O2       1.02350    1.08820    0.52350   1.00
O2       1.02350    1.02350    0.58820   1.00
C1       1.00000    1.00000    0.39480   1.00
C1       1.00000    0.89480    0.50000   1.00
C1       1.10520    1.00000    0.50000   1.00
C1       0.89480    1.00000    0.50000   1.00
C1       1.00000    1.10520    0.50000   1.00
C1       1.00000    1.00000    0.60520   1.00
O1       1.00000    0.50000    1.00000   1.00
Zn1      1.03280    0.46720    0.96720   1.00
Zn1      0.96720    0.53280    0.96720   1.00
Zn1      0.96720    0.46720    1.03280   1.00
Zn1      1.03280    0.53280    1.03280   1.00
O2       1.02350    0.47650    0.91180   1.00
O2       1.02350    0.41180    0.97650   1.00
O2       1.08820    0.47650    0.97650   1.00
O2       0.97650    0.52350    0.91180   1.00
O2       0.91180    0.52350    0.97650   1.00
O2       0.97650    0.58820    0.97650   1.00
O2       0.97650    0.41180    1.02350   1.00
O2       0.91180    0.47650    1.02350   1.00
O2       0.97650    0.47650    1.08820   1.00
O2       1.08820    0.52350    1.02350   1.00
O2       1.02350    0.58820    1.02350   1.00
O2       1.02350    0.52350    1.08820   1.00
C1       1.00000    0.50000    0.89480   1.00
C1       1.00000    0.39480    1.00000   1.00
C1       1.10520    0.50000    1.00000   1.00
C1       0.89480    0.50000    1.00000   1.00
C1       1.00000    0.60520    1.00000   1.00
C1       1.00000    0.50000    1.10520   1.00
O1       0.50000    1.00000    1.00000   1.00
Zn1      0.53280    0.96720    0.96720   1.00
Zn1      0.46720    1.03280    0.96720   1.00
Zn1      0.46720    0.96720    1.03280   1.00
Zn1      0.53280    1.03280    1.03280   1.00
O2       0.52350    0.97650    0.91180   1.00
O2       0.52350    0.91180    0.97650   1.00
O2       0.58820    0.97650    0.97650   1.00
O2       0.47650    1.02350    0.91180   1.00
O2       0.41180    1.02350    0.97650   1.00
O2       0.47650    1.08820    0.97650   1.00
O2       0.47650    0.91180    1.02350   1.00
O2       0.41180    0.97650    1.02350   1.00
O2       0.47650    0.97650    1.08820   1.00
O2       0.58820    1.02350    1.02350   1.00
O2       0.52350    1.08820    1.02350   1.00
O2       0.52350    1.02350    1.08820   1.00
C1       0.50000    1.00000    0.89480   1.00
C1       0.50000    0.89480    1.00000   1.00
C1       0.60520    1.00000    1.00000   1.00
C1       0.39480    1.00000    1.00000   1.00
C1       0.50000    1.10520    1.00000   1.00
C1       0.50000    1.00000    1.10520   1.00
C5       0.70152    0.86715    1.13218   1.00
H2       0.68054    0.84776    1.14745   1.00
H2       0.68397    0.88418    1.11090   1.00
C5       0.72100    0.89459    1.16194   1.00
C5       0.69436    0.92955    1.17123   1.00
H2       0.74919    0.90559    1.15015   1.00
O3       0.80985    0.78786    0.98000   1.00
C4       0.74982    0.74962    1.02100   1.00
C3c      0.73057    0.77877    1.04243   1.00
H1       0.71524    0.80178    1.02725   1.00
C3d      0.76914    0.71959    1.04135   1.00
C3       0.73121    0.77908    1.08354   1.00
O2       0.70784    0.80568    1.10248   1.00
C3       0.77047    0.72022    1.08227   1.00
H1       0.78681    0.69735    1.09657   1.00
C2       0.75152    0.74972    1.10439   1.00
C5       0.84472    0.76594    0.97879   1.00
H2       0.85532    0.76137    0.94838   1.00
H2       0.84070    0.73675    0.99266   1.00
C5       0.87568    0.78861    1.00129   1.00
H2       0.86462    0.79413    1.03137   1.00
H2       0.87971    0.81754    0.98698   1.00
C5       0.91447    0.76600    1.00262   1.00
H2       0.92555    0.76014    0.97268   1.00
H2       0.91078    0.73770    1.01811   1.00
C5       0.94553    0.79002    1.02445   1.00
C5       0.76674    0.66037    1.01105   1.00
C5       0.72937    0.83991    1.11070   1.00
H2       0.74317    0.66992    0.99088   1.00
H2       0.75313    0.64640    1.03712   1.00
H2       0.73953    0.85368    1.08300   1.00
H2       0.75579    0.83398    1.12895   1.00
H2       0.72639    0.87938    1.19030   1.00
H2       0.75239    0.61344    0.94247   1.00
H2       0.74551    0.58647    0.98763   1.00
C2       0.75264    0.74953    0.89605   1.00
C3       0.72115    0.73196    0.91597   1.00
O2       0.69653    0.70657    0.89674   1.00
C3       0.78177    0.76858    0.91826   1.00
H1       0.80572    0.78318    0.90385   1.00
C3a      0.71998    0.73289    0.95713   1.00
H1       0.69688    0.71739    0.97202   1.00
C3b      0.78118    0.76838    0.95922   1.00
C4       0.75018    0.75038    0.97900   1.00
O3       0.79099    0.69190    1.02167   1.00
C5       0.66121    0.72546    0.88720   1.00
H2       0.64601    0.73630    0.91391   1.00
C5       0.63551    0.69546    0.86674   1.00
H2       0.66647    0.75061    0.86726   1.00
H2       0.62191    0.67646    0.88932   1.00
H2       0.65500    0.67637    0.84907   1.00
C5       0.60396    0.71420    0.84082   1.00
H2       0.58676    0.73547    0.85824   1.00
C5       0.57609    0.68296    0.82453   1.00
H2       0.61714    0.72931    0.81507   1.00
C5       0.79212    0.63039    0.99017   1.00
H2       0.81125    0.61599    1.01215   1.00
H2       0.81164    0.64619    0.96952   1.00
C5       0.76754    0.60002    0.96800   1.00
C5       0.79408    0.56738    0.95225   1.00
H2       0.67090    0.92018    1.19286   1.00
C5       0.71885    0.96270    1.18912   1.00
H2       0.67997    0.94027    1.14323   1.00
C5       0.98105    0.76400    1.03337   1.00
H2       0.95505    0.81565    1.00551   1.00
H2       0.93272    0.80144    1.05293   1.00
C5       0.54095    0.70297    0.80497   1.00
H2       0.59215    0.66437    0.80211   1.00
H2       0.56541    0.66359    0.84937   1.00
H2       0.81979    0.58086    0.93602   1.00
H2       0.80536    0.54906    0.97761   1.00
C5       0.77066    0.54128    0.92417   1.00
H2       0.74723    0.95025    1.20116   1.00
H2       0.72570    0.98530    1.16571   1.00
H2       0.70172    0.97708    1.21374   1.00
H2       0.97737    0.73463    1.01820   1.00
H2       1.00870    0.77880    1.02229   1.00
H2       0.98339    0.75930    1.06621   1.00
H2       0.55124    0.73020    0.78889   1.00
H2       0.52686    0.68199    0.78336   1.00
H2       0.51873    0.71154    0.82819   1.00
H2       0.77413    0.55254    0.89307   1.00
H2       0.78200    0.51007    0.92598   1.00
H2       0.73852    0.54191    0.93266   1.00
C5       0.86715    1.13218    0.70152   1.00
H2       0.84776    1.14745    0.68054   1.00
H2       0.88418    1.11090    0.68397   1.00
C5       0.89459    1.16194    0.72100   1.00
C5       0.92955    1.17123    0.69436   1.00
H2       0.90559    1.15015    0.74919   1.00
O3       0.78786    0.98000    0.80985   1.00
C4       0.74962    1.02100    0.74982   1.00
C3c      0.77877    1.04243    0.73057   1.00
H1       0.80178    1.02725    0.71524   1.00
C3d      0.71959    1.04135    0.76914   1.00
C3       0.77908    1.08354    0.73121   1.00
O2       0.80568    1.10248    0.70784   1.00
C3       0.72022    1.08227    0.77047   1.00
H1       0.69735    1.09657    0.78681   1.00
C2       0.74972    1.10439    0.75152   1.00
C5       0.76594    0.97879    0.84472   1.00
H2       0.76137    0.94838    0.85532   1.00
H2       0.73675    0.99266    0.84070   1.00
C5       0.78861    1.00129    0.87568   1.00
H2       0.79413    1.03137    0.86462   1.00
H2       0.81754    0.98698    0.87971   1.00
C5       0.76600    1.00262    0.91447   1.00
H2       0.76014    0.97268    0.92555   1.00
H2       0.73770    1.01811    0.91078   1.00
C5       0.79002    1.02445    0.94553   1.00
C5       0.66037    1.01105    0.76674   1.00
C5       0.83991    1.11070    0.72937   1.00
H2       0.66992    0.99088    0.74317   1.00
H2       0.64640    1.03712    0.75313   1.00
H2       0.85368    1.08300    0.73953   1.00
H2       0.83398    1.12895    0.75579   1.00
H2       0.87938    1.19030    0.72639   1.00
H2       0.61344    0.94247    0.75239   1.00
H2       0.58647    0.98763    0.74551   1.00
C2       0.74953    0.89605    0.75264   1.00
C3       0.73196    0.91597    0.72115   1.00
O2       0.70657    0.89674    0.69653   1.00
C3       0.76858    0.91826    0.78177   1.00
H1       0.78318    0.90385    0.80572   1.00
C3a      0.73289    0.95713    0.71998   1.00
H1       0.71739    0.97202    0.69688   1.00
C3b      0.76838    0.95922    0.78118   1.00
C4       0.75038    0.97900    0.75018   1.00
O3       0.69190    1.02167    0.79099   1.00
C5       0.72546    0.88720    0.66121   1.00
H2       0.73630    0.91391    0.64601   1.00
C5       0.69546    0.86674    0.63551   1.00
H2       0.75061    0.86726    0.66647   1.00
H2       0.67646    0.88932    0.62191   1.00
H2       0.67637    0.84907    0.65500   1.00
C5       0.71420    0.84082    0.60396   1.00
H2       0.73547    0.85824    0.58676   1.00
C5       0.68296    0.82453    0.57609   1.00
H2       0.72931    0.81507    0.61714   1.00
C5       0.63039    0.99017    0.79212   1.00
H2       0.61599    1.01215    0.81125   1.00
H2       0.64619    0.96952    0.81164   1.00
C5       0.60002    0.96800    0.76754   1.00
C5       0.56738    0.95225    0.79408   1.00
H2       0.92018    1.19286    0.67090   1.00
C5       0.96270    1.18912    0.71885   1.00
H2       0.94027    1.14323    0.67997   1.00
C5       0.76400    1.03337    0.98105   1.00
H2       0.81565    1.00551    0.95505   1.00
H2       0.80144    1.05293    0.93272   1.00
C5       0.70297    0.80497    0.54095   1.00
H2       0.66437    0.80211    0.59215   1.00
H2       0.66359    0.84937    0.56541   1.00
H2       0.58086    0.93602    0.81979   1.00
H2       0.54906    0.97761    0.80536   1.00
C5       0.54128    0.92417    0.77066   1.00
H2       0.95025    1.20116    0.74723   1.00
H2       0.98530    1.16571    0.72570   1.00
H2       0.97708    1.21374    0.70172   1.00
H2       0.73463    1.01820    0.97737   1.00
H2       0.77880    1.02229    1.00870   1.00
H2       0.75930    1.06621    0.98339   1.00
H2       0.73020    0.78889    0.55124   1.00
H2       0.68199    0.78336    0.52686   1.00
H2       0.71154    0.82819    0.51873   1.00
H2       0.55254    0.89307    0.77413   1.00
H2       0.51007    0.92598    0.78200   1.00
H2       0.54191    0.93266    0.73852   1.00
C5       0.36782    0.70152    0.63285   1.00
H2       0.35255    0.68054    0.65224   1.00
H2       0.38910    0.68397    0.61582   1.00
C5       0.33806    0.72100    0.60541   1.00
C5       0.32877    0.69436    0.57045   1.00
H2       0.34985    0.74919    0.59441   1.00
O3       0.52000    0.80985    0.71214   1.00
C4       0.47900    0.74982    0.75038   1.00
C3c      0.45757    0.73057    0.72123   1.00
H1       0.47275    0.71524    0.69822   1.00
C3d      0.45865    0.76914    0.78041   1.00
C3       0.41646    0.73121    0.72092   1.00
O2       0.39752    0.70784    0.69432   1.00
C3       0.41773    0.77047    0.77978   1.00
H1       0.40343    0.78681    0.80265   1.00
C2       0.39561    0.75152    0.75028   1.00
C5       0.52121    0.84472    0.73406   1.00
H2       0.55162    0.85532    0.73863   1.00
H2       0.50734    0.84070    0.76325   1.00
C5       0.49871    0.87568    0.71139   1.00
H2       0.46863    0.86462    0.70587   1.00
H2       0.51302    0.87971    0.68246   1.00
C5       0.49738    0.91447    0.73400   1.00
H2       0.52732    0.92555    0.73986   1.00
H2       0.48189    0.91078    0.76230   1.00
C5       0.47555    0.94553    0.70998   1.00
C5       0.48895    0.76674    0.83963   1.00
C5       0.38930    0.72937    0.66009   1.00
H2       0.50912    0.74317    0.83008   1.00
H2       0.46288    0.75313    0.85360   1.00
H2       0.41700    0.73953    0.64632   1.00
H2       0.37105    0.75579    0.66602   1.00
H2       0.30970    0.72639    0.62062   1.00
H2       0.55753    0.75239    0.88656   1.00
H2       0.51237    0.74551    0.91353   1.00
C2       0.60395    0.75264    0.75047   1.00
C3       0.58403    0.72115    0.76804   1.00
O2       0.60326    0.69653    0.79343   1.00
C3       0.58174    0.78177    0.73142   1.00
H1       0.59615    0.80572    0.71682   1.00
C3a      0.54287    0.71998    0.76711   1.00
H1       0.52798    0.69688    0.78261   1.00
C3b      0.54078    0.78118    0.73162   1.00
C4       0.52100    0.75018    0.74962   1.00
O3       0.47833    0.79099    0.80810   1.00
C5       0.61280    0.66121    0.77454   1.00
H2       0.58609    0.64601    0.76370   1.00
C5       0.63326    0.63551    0.80454   1.00
H2       0.63274    0.66647    0.74939   1.00
H2       0.61068    0.62191    0.82354   1.00
H2       0.65093    0.65500    0.82363   1.00
C5       0.65918    0.60396    0.78580   1.00
H2       0.64176    0.58676    0.76453   1.00
C5       0.67547    0.57609    0.81704   1.00
H2       0.68493    0.61714    0.77069   1.00
C5       0.50983    0.79212    0.86961   1.00
H2       0.48785    0.81125    0.88401   1.00
H2       0.53048    0.81164    0.85381   1.00
C5       0.53200    0.76754    0.89998   1.00
C5       0.54775    0.79408    0.93262   1.00
H2       0.30714    0.67090    0.57982   1.00
C5       0.31088    0.71885    0.53730   1.00
H2       0.35677    0.67997    0.55973   1.00
C5       0.46663    0.98105    0.73600   1.00
H2       0.49449    0.95505    0.68435   1.00
H2       0.44707    0.93272    0.69856   1.00
C5       0.69503    0.54095    0.79703   1.00
H2       0.69789    0.59215    0.83563   1.00
H2       0.65063    0.56541    0.83641   1.00
H2       0.56398    0.81979    0.91914   1.00
H2       0.52239    0.80536    0.95094   1.00
C5       0.57583    0.77066    0.95872   1.00
H2       0.29884    0.74723    0.54975   1.00
H2       0.33429    0.72570    0.51470   1.00
H2       0.28626    0.70172    0.52292   1.00
H2       0.48180    0.97737    0.76537   1.00
H2       0.47771    1.00870    0.72120   1.00
H2       0.43379    0.98339    0.74070   1.00
H2       0.71111    0.55124    0.76980   1.00
H2       0.71664    0.52686    0.81801   1.00
H2       0.67181    0.51873    0.78846   1.00
H2       0.60693    0.77413    0.94746   1.00
H2       0.57402    0.78200    0.98993   1.00
H2       0.56734    0.73852    0.95809   1.00
C5       1.13218    0.70152    0.86715   1.00
H2       1.14745    0.68054    0.84776   1.00
H2       1.11090    0.68397    0.88418   1.00
C5       1.16194    0.72100    0.89459   1.00
C5       1.17123    0.69436    0.92955   1.00
H2       1.15015    0.74919    0.90559   1.00
O3       0.98000    0.80985    0.78786   1.00
C4       1.02100    0.74982    0.74962   1.00
C3c      1.04243    0.73057    0.77877   1.00
H1       1.02725    0.71524    0.80178   1.00
C3d      1.04135    0.76914    0.71959   1.00
C3       1.08354    0.73121    0.77908   1.00
O2       1.10248    0.70784    0.80568   1.00
C3       1.08227    0.77047    0.72022   1.00
H1       1.09657    0.78681    0.69735   1.00
C2       1.10439    0.75152    0.74972   1.00
C5       0.97879    0.84472    0.76594   1.00
H2       0.94838    0.85532    0.76137   1.00
H2       0.99266    0.84070    0.73675   1.00
C5       1.00129    0.87568    0.78861   1.00
H2       1.03137    0.86462    0.79413   1.00
H2       0.98698    0.87971    0.81754   1.00
C5       1.00262    0.91447    0.76600   1.00
H2       0.97268    0.92555    0.76014   1.00
H2       1.01811    0.91078    0.73770   1.00
C5       1.02445    0.94553    0.79002   1.00
C5       1.01105    0.76674    0.66037   1.00
C5       1.11070    0.72937    0.83991   1.00
H2       0.99088    0.74317    0.66992   1.00
H2       1.03712    0.75313    0.64640   1.00
H2       1.08300    0.73953    0.85368   1.00
H2       1.12895    0.75579    0.83398   1.00
H2       1.19030    0.72639    0.87938   1.00
H2       0.94247    0.75239    0.61344   1.00
H2       0.98763    0.74551    0.58647   1.00
C2       0.89605    0.75264    0.74953   1.00
C3       0.91597    0.72115    0.73196   1.00
O2       0.89674    0.69653    0.70657   1.00
C3       0.91826    0.78177    0.76858   1.00
H1       0.90385    0.80572    0.78318   1.00
C3a      0.95713    0.71998    0.73289   1.00
H1       0.97202    0.69688    0.71739   1.00
C3b      0.95922    0.78118    0.76838   1.00
C4       0.97900    0.75018    0.75038   1.00
O3       1.02167    0.79099    0.69190   1.00
C5       0.88720    0.66121    0.72546   1.00
H2       0.91391    0.64601    0.73630   1.00
C5       0.86674    0.63551    0.69546   1.00
H2       0.86726    0.66647    0.75061   1.00
H2       0.88932    0.62191    0.67646   1.00
H2       0.84907    0.65500    0.67637   1.00
C5       0.84082    0.60396    0.71420   1.00
H2       0.85824    0.58676    0.73547   1.00
C5       0.82453    0.57609    0.68296   1.00
H2       0.81507    0.61714    0.72931   1.00
C5       0.99017    0.79212    0.63039   1.00
H2       1.01215    0.81125    0.61599   1.00
H2       0.96952    0.81164    0.64619   1.00
C5       0.96800    0.76754    0.60002   1.00
C5       0.95225    0.79408    0.56738   1.00
H2       1.19286    0.67090    0.92018   1.00
C5       1.18912    0.71885    0.96270   1.00
H2       1.14323    0.67997    0.94027   1.00
C5       1.03337    0.98105    0.76400   1.00
H2       1.00551    0.95505    0.81565   1.00
H2       1.05293    0.93272    0.80144   1.00
C5       0.80497    0.54095    0.70297   1.00
H2       0.80211    0.59215    0.66437   1.00
H2       0.84937    0.56541    0.66359   1.00
H2       0.93602    0.81979    0.58086   1.00
H2       0.97761    0.80536    0.54906   1.00
C5       0.92417    0.77066    0.54128   1.00
H2       1.20116    0.74723    0.95025   1.00
H2       1.16571    0.72570    0.98530   1.00
H2       1.21374    0.70172    0.97708   1.00
H2       1.01820    0.97737    0.73463   1.00
H2       1.02229    1.00870    0.77880   1.00
H2       1.06621    0.98339    0.75930   1.00
H2       0.78889    0.55124    0.73020   1.00
H2       0.78336    0.52686    0.68199   1.00
H2       0.82819    0.51873    0.71154   1.00
H2       0.89307    0.77413    0.55254   1.00
H2       0.92598    0.78200    0.51007   1.00
H2       0.93266    0.73852    0.54191   1.00
C5       0.63285    0.36782    0.70152   1.00
H2       0.65224    0.35255    0.68054   1.00
H2       0.61582    0.38910    0.68397   1.00
C5       0.60541    0.33806    0.72100   1.00
C5       0.57045    0.32877    0.69436   1.00
H2       0.59441    0.34985    0.74919   1.00
O3       0.71214    0.52000    0.80985   1.00
C4       0.75038    0.47900    0.74982   1.00
C3c      0.72123    0.45757    0.73057   1.00
H1       0.69822    0.47275    0.71524   1.00
C3d      0.78041    0.45865    0.76914   1.00
C3       0.72092    0.41646    0.73121   1.00
O2       0.69432    0.39752    0.70784   1.00
C3       0.77978    0.41773    0.77047   1.00
H1       0.80265    0.40343    0.78681   1.00
C2       0.75028    0.39561    0.75152   1.00
C5       0.73406    0.52121    0.84472   1.00
H2       0.73863    0.55162    0.85532   1.00
H2       0.76325    0.50734    0.84070   1.00
C5       0.71139    0.49871    0.87568   1.00
H2       0.70587    0.46863    0.86462   1.00
H2       0.68246    0.51302    0.87971   1.00
C5       0.73400    0.49738    0.91447   1.00
H2       0.73986    0.52732    0.92555   1.00
H2       0.76230    0.48189    0.91078   1.00
C5       0.70998    0.47555    0.94553   1.00
C5       0.83963    0.48895    0.76674   1.00
C5       0.66009    0.38930    0.72937   1.00
H2       0.83008    0.50912    0.74317   1.00
H2       0.85360    0.46288    0.75313   1.00
H2       0.64632    0.41700    0.73953   1.00
H2       0.66602    0.37105    0.75579   1.00
H2       0.62062    0.30970    0.72639   1.00
H2       0.88656    0.55753    0.75239   1.00
H2       0.91353    0.51237    0.74551   1.00
C2       0.75047    0.60395    0.75264   1.00
C3       0.76804    0.58403    0.72115   1.00
O2       0.79343    0.60326    0.69653   1.00
C3       0.73142    0.58174    0.78177   1.00
H1       0.71682    0.59615    0.80572   1.00
C3a      0.76711    0.54287    0.71998   1.00
H1       0.78261    0.52798    0.69688   1.00
C3b      0.73162    0.54078    0.78118   1.00
C4       0.74962    0.52100    0.75018   1.00
O3       0.80810    0.47833    0.79099   1.00
C5       0.77454    0.61280    0.66121   1.00
H2       0.76370    0.58609    0.64601   1.00
C5       0.80454    0.63326    0.63551   1.00
H2       0.74939    0.63274    0.66647   1.00
H2       0.82354    0.61068    0.62191   1.00
H2       0.82363    0.65093    0.65500   1.00
C5       0.78580    0.65918    0.60396   1.00
H2       0.76453    0.64176    0.58676   1.00
C5       0.81704    0.67547    0.57609   1.00
H2       0.77069    0.68493    0.61714   1.00
C5       0.86961    0.50983    0.79212   1.00
H2       0.88401    0.48785    0.81125   1.00
H2       0.85381    0.53048    0.81164   1.00
C5       0.89998    0.53200    0.76754   1.00
C5       0.93262    0.54775    0.79408   1.00
H2       0.57982    0.30714    0.67090   1.00
C5       0.53730    0.31088    0.71885   1.00
H2       0.55973    0.35677    0.67997   1.00
C5       0.73600    0.46663    0.98105   1.00
H2       0.68435    0.49449    0.95505   1.00
H2       0.69856    0.44707    0.93272   1.00
C5       0.79703    0.69503    0.54095   1.00
H2       0.83563    0.69789    0.59215   1.00
H2       0.83641    0.65063    0.56541   1.00
H2       0.91914    0.56398    0.81979   1.00
H2       0.95094    0.52239    0.80536   1.00
C5       0.95872    0.57583    0.77066   1.00
H2       0.54975    0.29884    0.74723   1.00
H2       0.51470    0.33429    0.72570   1.00
H2       0.52292    0.28626    0.70172   1.00
H2       0.76537    0.48180    0.97737   1.00
H2       0.72120    0.47771    1.00870   1.00
H2       0.74070    0.43379    0.98339   1.00
H2       0.76980    0.71111    0.55124   1.00
H2       0.81801    0.71664    0.52686   1.00
H2       0.78846    0.67181    0.51873   1.00
H2       0.94746    0.60693    0.77413   1.00
H2       0.98993    0.57402    0.78200   1.00
H2       0.95809    0.56734    0.73852   1.00
C5       0.70152    0.63285    0.36782   1.00
H2       0.68054    0.65224    0.35255   1.00
H2       0.68397    0.61582    0.38910   1.00
C5       0.72100    0.60541    0.33806   1.00
C5       0.69436    0.57045    0.32877   1.00
H2       0.74919    0.59441    0.34985   1.00
O3       0.80985    0.71214    0.52000   1.00
C4       0.74982    0.75038    0.47900   1.00
C3c      0.73057    0.72123    0.45757   1.00
H1       0.71524    0.69822    0.47275   1.00
C3d      0.76914    0.78041    0.45865   1.00
C3       0.73121    0.72092    0.41646   1.00
O2       0.70784    0.69432    0.39752   1.00
C3       0.77047    0.77978    0.41773   1.00
H1       0.78681    0.80265    0.40343   1.00
C2       0.75152    0.75028    0.39561   1.00
C5       0.84472    0.73406    0.52121   1.00
H2       0.85532    0.73863    0.55162   1.00
H2       0.84070    0.76325    0.50734   1.00
C5       0.87568    0.71139    0.49871   1.00
H2       0.86462    0.70587    0.46863   1.00
H2       0.87971    0.68246    0.51302   1.00
C5       0.91447    0.73400    0.49738   1.00
H2       0.92555    0.73986    0.52732   1.00
H2       0.91078    0.76230    0.48189   1.00
C5       0.94553    0.70998    0.47555   1.00
C5       0.76674    0.83963    0.48895   1.00
C5       0.72937    0.66009    0.38930   1.00
H2       0.74317    0.83008    0.50912   1.00
H2       0.75313    0.85360    0.46288   1.00
H2       0.73953    0.64632    0.41700   1.00
H2       0.75579    0.66602    0.37105   1.00
H2       0.72639    0.62062    0.30970   1.00
H2       0.75239    0.88656    0.55753   1.00
H2       0.74551    0.91353    0.51237   1.00
C2       0.75264    0.75047    0.60395   1.00
C3       0.72115    0.76804    0.58403   1.00
O2       0.69653    0.79343    0.60326   1.00
C3       0.78177    0.73142    0.58174   1.00
H1       0.80572    0.71682    0.59615   1.00
C3a      0.71998    0.76711    0.54287   1.00
H1       0.69688    0.78261    0.52798   1.00
C3b      0.78118    0.73162    0.54078   1.00
C4       0.75018    0.74962    0.52100   1.00
O3       0.79099    0.80810    0.47833   1.00
C5       0.66121    0.77454    0.61280   1.00
H2       0.64601    0.76370    0.58609   1.00
C5       0.63551    0.80454    0.63326   1.00
H2       0.66647    0.74939    0.63274   1.00
H2       0.62191    0.82354    0.61068   1.00
H2       0.65500    0.82363    0.65093   1.00
C5       0.60396    0.78580    0.65918   1.00
H2       0.58676    0.76453    0.64176   1.00
C5       0.57609    0.81704    0.67547   1.00
H2       0.61714    0.77069    0.68493   1.00
C5       0.79212    0.86961    0.50983   1.00
H2       0.81125    0.88401    0.48785   1.00
H2       0.81164    0.85381    0.53048   1.00
C5       0.76754    0.89998    0.53200   1.00
C5       0.79408    0.93262    0.54775   1.00
H2       0.67090    0.57982    0.30714   1.00
C5       0.71885    0.53730    0.31088   1.00
H2       0.67997    0.55973    0.35677   1.00
C5       0.98105    0.73600    0.46663   1.00
H2       0.95505    0.68435    0.49449   1.00
H2       0.93272    0.69856    0.44707   1.00
C5       0.54095    0.79703    0.69503   1.00
H2       0.59215    0.83563    0.69789   1.00
H2       0.56541    0.83641    0.65063   1.00
H2       0.81979    0.91914    0.56398   1.00
H2       0.80536    0.95094    0.52239   1.00
C5       0.77066    0.95872    0.57583   1.00
H2       0.74723    0.54975    0.29884   1.00
H2       0.72570    0.51470    0.33429   1.00
H2       0.70172    0.52292    0.28626   1.00
H2       0.97737    0.76537    0.48180   1.00
H2       1.00870    0.72120    0.47771   1.00
H2       0.98339    0.74070    0.43379   1.00
H2       0.55124    0.76980    0.71111   1.00
H2       0.52686    0.81801    0.71664   1.00
H2       0.51873    0.78846    0.67181   1.00
H2       0.77413    0.94746    0.60693   1.00
H2       0.78200    0.98993    0.57402   1.00
H2       0.73852    0.95809    0.56734   1.00
C5       0.20152    0.36715    1.13218   1.00
H2       0.18054    0.34776    1.14745   1.00
H2       0.18397    0.38418    1.11090   1.00
C5       0.22100    0.39459    1.16194   1.00
C5       0.19436    0.42955    1.17123   1.00
H2       0.24919    0.40559    1.15015   1.00
O3       0.30985    0.28786    0.98000   1.00
C4       0.24982    0.24962    1.02100   1.00
C3c      0.23057    0.27877    1.04243   1.00
H1       0.21524    0.30178    1.02725   1.00
C3d      0.26914    0.21959    1.04135   1.00
C3       0.23121    0.27908    1.08354   1.00
O2       0.20784    0.30568    1.10248   1.00
C3       0.27047    0.22022    1.08227   1.00
H1       0.28681    0.19735    1.09657   1.00
C2       0.25152    0.24972    1.10439   1.00
C5       0.34472    0.26594    0.97879   1.00
H2       0.35532    0.26137    0.94838   1.00
H2       0.34070    0.23675    0.99266   1.00
C5       0.37568    0.28861    1.00129   1.00
H2       0.36462    0.29413    1.03137   1.00
H2       0.37971    0.31754    0.98698   1.00
C5       0.41447    0.26600    1.00262   1.00
H2       0.42555    0.26014    0.97268   1.00
H2       0.41078    0.23770    1.01811   1.00
C5       0.44553    0.29002    1.02445   1.00
C5       0.26674    0.16037    1.01105   1.00
C5       0.22937    0.33991    1.11070   1.00
H2       0.24317    0.16992    0.99088   1.00
H2       0.25313    0.14640    1.03712   1.00
H2       0.23953    0.35368    1.08300   1.00
H2       0.25579    0.33398    1.12895   1.00
H2       0.22639    0.37938    1.19030   1.00
H2       0.25239    0.11344    0.94247   1.00
H2       0.24551    0.08647    0.98763   1.00
C2       0.25264    0.24953    0.89605   1.00
C3       0.22115    0.23196    0.91597   1.00
O2       0.19653    0.20657    0.89674   1.00
C3       0.28177    0.26858    0.91826   1.00
H1       0.30572    0.28318    0.90385   1.00
C3a      0.21998    0.23289    0.95713   1.00
H1       0.19688    0.21739    0.97202   1.00
C3b      0.28118    0.26838    0.95922   1.00
C4       0.25018    0.25038    0.97900   1.00
O3       0.29099    0.19190    1.02167   1.00
C5       0.16121    0.22546    0.88720   1.00
H2       0.14601    0.23630    0.91391   1.00
C5       0.13551    0.19546    0.86674   1.00
H2       0.16647    0.25061    0.86726   1.00
H2       0.12191    0.17646    0.88932   1.00
H2       0.15500    0.17637    0.84907   1.00
C5       0.10396    0.21420    0.84082   1.00
H2       0.08676    0.23547    0.85824   1.00
C5       0.07609    0.18296    0.82453   1.00
H2       0.11714    0.22931    0.81507   1.00
C5       0.29212    0.13039    0.99017   1.00
H2       0.31125    0.11599    1.01215   1.00
H2       0.31164    0.14619    0.96952   1.00
C5       0.26754    0.10002    0.96800   1.00
C5       0.29408    0.06738    0.95225   1.00
H2       0.17090    0.42018    1.19286   1.00
C5       0.21885    0.46270    1.18912   1.00
H2       0.17997    0.44027    1.14323   1.00
C5       0.48105    0.26400    1.03337   1.00
H2       0.45505    0.31565    1.00551   1.00
H2       0.43272    0.30144    1.05293   1.00
C5       0.04095    0.20297    0.80497   1.00
H2       0.09215    0.16437    0.80211   1.00
H2       0.06541    0.16359    0.84937   1.00
H2       0.31979    0.08086    0.93602   1.00
H2       0.30536    0.04906    0.97761   1.00
C5       0.27066    0.04128    0.92417   1.00
H2       0.24723    0.45025    1.20116   1.00
H2       0.22570    0.48530    1.16571   1.00
H2       0.20172    0.47708    1.21374   1.00
H2       0.47737    0.23463    1.01820   1.00
H2       0.50870    0.27880    1.02229   1.00
H2       0.48339    0.25930    1.06621   1.00
H2       0.05124    0.23020    0.78889   1.00
H2       0.02686    0.18199    0.78336   1.00
H2       0.01873    0.21154    0.82819   1.00
H2       0.27413    0.05254    0.89307   1.00
H2       0.28200    0.01007    0.92598   1.00
H2       0.23852    0.04191    0.93266   1.00
C5       0.36715    0.63218    0.70152   1.00
H2       0.34776    0.64745    0.68054   1.00
H2       0.38418    0.61090    0.68397   1.00
C5       0.39459    0.66194    0.72100   1.00
C5       0.42955    0.67123    0.69436   1.00
H2       0.40559    0.65015    0.74919   1.00
O3       0.28786    0.48000    0.80985   1.00
C4       0.24962    0.52100    0.74982   1.00
C3c      0.27877    0.54243    0.73057   1.00
H1       0.30178    0.52725    0.71524   1.00
C3d      0.21959    0.54135    0.76914   1.00
C3       0.27908    0.58354    0.73121   1.00
O2       0.30568    0.60248    0.70784   1.00
C3       0.22022    0.58227    0.77047   1.00
H1       0.19735    0.59657    0.78681   1.00
C2       0.24972    0.60439    0.75152   1.00
C5       0.26594    0.47879    0.84472   1.00
H2       0.26137    0.44838    0.85532   1.00
H2       0.23675    0.49266    0.84070   1.00
C5       0.28861    0.50129    0.87568   1.00
H2       0.29413    0.53137    0.86462   1.00
H2       0.31754    0.48698    0.87971   1.00
C5       0.26600    0.50262    0.91447   1.00
H2       0.26014    0.47268    0.92555   1.00
H2       0.23770    0.51811    0.91078   1.00
C5       0.29002    0.52445    0.94553   1.00
C5       0.16037    0.51105    0.76674   1.00
C5       0.33991    0.61070    0.72937   1.00
H2       0.16992    0.49088    0.74317   1.00
H2       0.14640    0.53712    0.75313   1.00
H2       0.35368    0.58300    0.73953   1.00
H2       0.33398    0.62895    0.75579   1.00
H2       0.37938    0.69030    0.72639   1.00
H2       0.11344    0.44247    0.75239   1.00
H2       0.08647    0.48763    0.74551   1.00
C2       0.24953    0.39605    0.75264   1.00
C3       0.23196    0.41597    0.72115   1.00
O2       0.20657    0.39674    0.69653   1.00
C3       0.26858    0.41826    0.78177   1.00
H1       0.28318    0.40385    0.80572   1.00
C3a      0.23289    0.45713    0.71998   1.00
H1       0.21739    0.47202    0.69688   1.00
C3b      0.26838    0.45922    0.78118   1.00
C4       0.25038    0.47900    0.75018   1.00
O3       0.19190    0.52167    0.79099   1.00
C5       0.22546    0.38720    0.66121   1.00
H2       0.23630    0.41391    0.64601   1.00
C5       0.19546    0.36674    0.63551   1.00
H2       0.25061    0.36726    0.66647   1.00
H2       0.17646    0.38932    0.62191   1.00
H2       0.17637    0.34907    0.65500   1.00
C5       0.21420    0.34082    0.60396   1.00
H2       0.23547    0.35824    0.58676   1.00
C5       0.18296    0.32453    0.57609   1.00
H2       0.22931    0.31507    0.61714   1.00
C5       0.13039    0.49017    0.79212   1.00
H2       0.11599    0.51215    0.81125   1.00
H2       0.14619    0.46952    0.81164   1.00
C5       0.10002    0.46800    0.76754   1.00
C5       0.06738    0.45225    0.79408   1.00
H2       0.42018    0.69286    0.67090   1.00
C5       0.46270    0.68912    0.71885   1.00
H2       0.44027    0.64323    0.67997   1.00
C5       0.26400    0.53337    0.98105   1.00
H2       0.31565    0.50551    0.95505   1.00
H2       0.30144    0.55293    0.93272   1.00
C5       0.20297    0.30497    0.54095   1.00
H2       0.16437    0.30211    0.59215   1.00
H2       0.16359    0.34937    0.56541   1.00
H2       0.08086    0.43602    0.81979   1.00
H2       0.04906    0.47761    0.80536   1.00
C5       0.04128    0.42417    0.77066   1.00
H2       0.45025    0.70116    0.74723   1.00
H2       0.48530    0.66571    0.72570   1.00
H2       0.47708    0.71374    0.70172   1.00
H2       0.23463    0.51820    0.97737   1.00
H2       0.27880    0.52229    1.00870   1.00
H2       0.25930    0.56621    0.98339   1.00
H2       0.23020    0.28889    0.55124   1.00
H2       0.18199    0.28336    0.52686   1.00
H2       0.21154    0.32819    0.51873   1.00
H2       0.05254    0.39307    0.77413   1.00
H2       0.01007    0.42598    0.78200   1.00
H2       0.04191    0.43266    0.73852   1.00
C5       -0.13218   0.20152    0.63285   1.00
H2       -0.14745   0.18054    0.65224   1.00
H2       -0.11090   0.18397    0.61582   1.00
C5       -0.16194   0.22100    0.60541   1.00
C5       -0.17123   0.19436    0.57045   1.00
H2       -0.15015   0.24919    0.59441   1.00
O3       0.02000    0.30985    0.71214   1.00
C4       -0.02100   0.24982    0.75038   1.00
C3c      -0.04243   0.23057    0.72123   1.00
H1       -0.02725   0.21524    0.69822   1.00
C3d      -0.04135   0.26914    0.78041   1.00
C3       -0.08354   0.23121    0.72092   1.00
O2       -0.10248   0.20784    0.69432   1.00
C3       -0.08227   0.27047    0.77978   1.00
H1       -0.09657   0.28681    0.80265   1.00
C2       -0.10439   0.25152    0.75028   1.00
C5       0.02121    0.34472    0.73406   1.00
H2       0.05162    0.35532    0.73863   1.00
H2       0.00734    0.34070    0.76325   1.00
C5       -0.00129   0.37568    0.71139   1.00
H2       -0.03137   0.36462    0.70587   1.00
H2       0.01302    0.37971    0.68246   1.00
C5       -0.00262   0.41447    0.73400   1.00
H2       0.02732    0.42555    0.73986   1.00
H2       -0.01811   0.41078    0.76230   1.00
C5       -0.02445   0.44553    0.70998   1.00
C5       -0.01105   0.26674    0.83963   1.00
C5       -0.11070   0.22937    0.66009   1.00
H2       0.00912    0.24317    0.83008   1.00
H2       -0.03712   0.25313    0.85360   1.00
H2       -0.08300   0.23953    0.64632   1.00
H2       -0.12895   0.25579    0.66602   1.00
H2       -0.19030   0.22639    0.62062   1.00
H2       0.05753    0.25239    0.88656   1.00
H2       0.01237    0.24551    0.91353   1.00
C2       0.10395    0.25264    0.75047   1.00
C3       0.08403    0.22115    0.76804   1.00
O2       0.10326    0.19653    0.79343   1.00
C3       0.08174    0.28177    0.73142   1.00
H1       0.09615    0.30572    0.71682   1.00
C3a      0.04287    0.21998    0.76711   1.00
H1       0.02798    0.19688    0.78261   1.00
C3b      0.04078    0.28118    0.73162   1.00
C4       0.02100    0.25018    0.74962   1.00
O3       -0.02167   0.29099    0.80810   1.00
C5       0.11280    0.16121    0.77454   1.00
H2       0.08609    0.14601    0.76370   1.00
C5       0.13326    0.13551    0.80454   1.00
H2       0.13274    0.16647    0.74939   1.00
H2       0.11068    0.12191    0.82354   1.00
H2       0.15093    0.15500    0.82363   1.00
C5       0.15918    0.10396    0.78580   1.00
H2       0.14176    0.08676    0.76453   1.00
C5       0.17547    0.07609    0.81704   1.00
H2       0.18493    0.11714    0.77069   1.00
C5       0.00983    0.29212    0.86961   1.00
H2       -0.01215   0.31125    0.88401   1.00
H2       0.03048    0.31164    0.85381   1.00
C5       0.03200    0.26754    0.89998   1.00
C5       0.04775    0.29408    0.93262   1.00
H2       -0.19286   0.17090    0.57982   1.00
C5       -0.18912   0.21885    0.53730   1.00
H2       -0.14323   0.17997    0.55973   1.00
C5       -0.03337   0.48105    0.73600   1.00
H2       -0.00551   0.45505    0.68435   1.00
H2       -0.05293   0.43272    0.69856   1.00
C5       0.19503    0.04095    0.79703   1.00
H2       0.19789    0.09215    0.83563   1.00
H2       0.15063    0.06541    0.83641   1.00
H2       0.06398    0.31979    0.91914   1.00
H2       0.02239    0.30536    0.95094   1.00
C5       0.07583    0.27066    0.95872   1.00
H2       -0.20116   0.24723    0.54975   1.00
H2       -0.16571   0.22570    0.51470   1.00
H2       -0.21374   0.20172    0.52292   1.00
H2       -0.01820   0.47737    0.76537   1.00
H2       -0.02229   0.50870    0.72120   1.00
H2       -0.06621   0.48339    0.74070   1.00
H2       0.21111    0.05124    0.76980   1.00
H2       0.21664    0.02686    0.81801   1.00
H2       0.17181    0.01873    0.78846   1.00
H2       0.10693    0.27413    0.94746   1.00
H2       0.07402    0.28200    0.98993   1.00
H2       0.06734    0.23852    0.95809   1.00
C5       0.63218    0.20152    0.86715   1.00
H2       0.64745    0.18054    0.84776   1.00
H2       0.61090    0.18397    0.88418   1.00
C5       0.66194    0.22100    0.89459   1.00
C5       0.67123    0.19436    0.92955   1.00
H2       0.65015    0.24919    0.90559   1.00
O3       0.48000    0.30985    0.78786   1.00
C4       0.52100    0.24982    0.74962   1.00
C3c      0.54243    0.23057    0.77877   1.00
H1       0.52725    0.21524    0.80178   1.00
C3d      0.54135    0.26914    0.71959   1.00
C3       0.58354    0.23121    0.77908   1.00
O2       0.60248    0.20784    0.80568   1.00
C3       0.58227    0.27047    0.72022   1.00
H1       0.59657    0.28681    0.69735   1.00
C2       0.60439    0.25152    0.74972   1.00
C5       0.47879    0.34472    0.76594   1.00
H2       0.44838    0.35532    0.76137   1.00
H2       0.49266    0.34070    0.73675   1.00
C5       0.50129    0.37568    0.78861   1.00
H2       0.53137    0.36462    0.79413   1.00
H2       0.48698    0.37971    0.81754   1.00
C5       0.50262    0.41447    0.76600   1.00
H2       0.47268    0.42555    0.76014   1.00
H2       0.51811    0.41078    0.73770   1.00
C5       0.52445    0.44553    0.79002   1.00
C5       0.51105    0.26674    0.66037   1.00
C5       0.61070    0.22937    0.83991   1.00
H2       0.49088    0.24317    0.66992   1.00
H2       0.53712    0.25313    0.64640   1.00
H2       0.58300    0.23953    0.85368   1.00
H2       0.62895    0.25579    0.83398   1.00
H2       0.69030    0.22639    0.87938   1.00
H2       0.44247    0.25239    0.61344   1.00
H2       0.48763    0.24551    0.58647   1.00
C2       0.39605    0.25264    0.74953   1.00
C3       0.41597    0.22115    0.73196   1.00
O2       0.39674    0.19653    0.70657   1.00
C3       0.41826    0.28177    0.76858   1.00
H1       0.40385    0.30572    0.78318   1.00
C3a      0.45713    0.21998    0.73289   1.00
H1       0.47202    0.19688    0.71739   1.00
C3b      0.45922    0.28118    0.76838   1.00
C4       0.47900    0.25018    0.75038   1.00
O3       0.52167    0.29099    0.69190   1.00
C5       0.38720    0.16121    0.72546   1.00
H2       0.41391    0.14601    0.73630   1.00
C5       0.36674    0.13551    0.69546   1.00
H2       0.36726    0.16647    0.75061   1.00
H2       0.38932    0.12191    0.67646   1.00
H2       0.34907    0.15500    0.67637   1.00
C5       0.34082    0.10396    0.71420   1.00
H2       0.35824    0.08676    0.73547   1.00
C5       0.32453    0.07609    0.68296   1.00
H2       0.31507    0.11714    0.72931   1.00
C5       0.49017    0.29212    0.63039   1.00
H2       0.51215    0.31125    0.61599   1.00
H2       0.46952    0.31164    0.64619   1.00
C5       0.46800    0.26754    0.60002   1.00
C5       0.45225    0.29408    0.56738   1.00
H2       0.69286    0.17090    0.92018   1.00
C5       0.68912    0.21885    0.96270   1.00
H2       0.64323    0.17997    0.94027   1.00
C5       0.53337    0.48105    0.76400   1.00
H2       0.50551    0.45505    0.81565   1.00
H2       0.55293    0.43272    0.80144   1.00
C5       0.30497    0.04095    0.70297   1.00
H2       0.30211    0.09215    0.66437   1.00
H2       0.34937    0.06541    0.66359   1.00
H2       0.43602    0.31979    0.58086   1.00
H2       0.47761    0.30536    0.54906   1.00
C5       0.42417    0.27066    0.54128   1.00
H2       0.70116    0.24723    0.95025   1.00
H2       0.66571    0.22570    0.98530   1.00
H2       0.71374    0.20172    0.97708   1.00
H2       0.51820    0.47737    0.73463   1.00
H2       0.52229    0.50870    0.77880   1.00
H2       0.56621    0.48339    0.75930   1.00
H2       0.28889    0.05124    0.73020   1.00
H2       0.28336    0.02686    0.68199   1.00
H2       0.32819    0.01873    0.71154   1.00
H2       0.39307    0.27413    0.55254   1.00
H2       0.42598    0.28200    0.51007   1.00
H2       0.43266    0.23852    0.54191   1.00
C5       0.13285    -0.13218   0.70152   1.00
H2       0.15224    -0.14745   0.68054   1.00
H2       0.11582    -0.11090   0.68397   1.00
C5       0.10541    -0.16194   0.72100   1.00
C5       0.07045    -0.17123   0.69436   1.00
H2       0.09441    -0.15015   0.74919   1.00
O3       0.21214    0.02000    0.80985   1.00
C4       0.25038    -0.02100   0.74982   1.00
C3c      0.22123    -0.04243   0.73057   1.00
H1       0.19822    -0.02725   0.71524   1.00
C3d      0.28041    -0.04135   0.76914   1.00
C3       0.22092    -0.08354   0.73121   1.00
O2       0.19432    -0.10248   0.70784   1.00
C3       0.27978    -0.08227   0.77047   1.00
H1       0.30265    -0.09657   0.78681   1.00
C2       0.25028    -0.10439   0.75152   1.00
C5       0.23406    0.02121    0.84472   1.00
H2       0.23863    0.05162    0.85532   1.00
H2       0.26325    0.00734    0.84070   1.00
C5       0.21139    -0.00129   0.87568   1.00
H2       0.20587    -0.03137   0.86462   1.00
H2       0.18246    0.01302    0.87971   1.00
C5       0.23400    -0.00262   0.91447   1.00
H2       0.23986    0.02732    0.92555   1.00
H2       0.26230    -0.01811   0.91078   1.00
C5       0.20998    -0.02445   0.94553   1.00
C5       0.33963    -0.01105   0.76674   1.00
C5       0.16009    -0.11070   0.72937   1.00
H2       0.33008    0.00912    0.74317   1.00
H2       0.35360    -0.03712   0.75313   1.00
H2       0.14632    -0.08300   0.73953   1.00
H2       0.16602    -0.12895   0.75579   1.00
H2       0.12062    -0.19030   0.72639   1.00
H2       0.38656    0.05753    0.75239   1.00
H2       0.41353    0.01237    0.74551   1.00
C2       0.25047    0.10395    0.75264   1.00
C3       0.26804    0.08403    0.72115   1.00
O2       0.29343    0.10326    0.69653   1.00
C3       0.23142    0.08174    0.78177   1.00
H1       0.21682    0.09615    0.80572   1.00
C3a      0.26711    0.04287    0.71998   1.00
H1       0.28261    0.02798    0.69688   1.00
C3b      0.23162    0.04078    0.78118   1.00
C4       0.24962    0.02100    0.75018   1.00
O3       0.30810    -0.02167   0.79099   1.00
C5       0.27454    0.11280    0.66121   1.00
H2       0.26370    0.08609    0.64601   1.00
C5       0.30454    0.13326    0.63551   1.00
H2       0.24939    0.13274    0.66647   1.00
H2       0.32354    0.11068    0.62191   1.00
H2       0.32363    0.15093    0.65500   1.00
C5       0.28580    0.15918    0.60396   1.00
H2       0.26453    0.14176    0.58676   1.00
C5       0.31704    0.17547    0.57609   1.00
H2       0.27069    0.18493    0.61714   1.00
C5       0.36961    0.00983    0.79212   1.00
H2       0.38401    -0.01215   0.81125   1.00
H2       0.35381    0.03048    0.81164   1.00
C5       0.39998    0.03200    0.76754   1.00
C5       0.43262    0.04775    0.79408   1.00
H2       0.07982    -0.19286   0.67090   1.00
C5       0.03730    -0.18912   0.71885   1.00
H2       0.05973    -0.14323   0.67997   1.00
C5       0.23600    -0.03337   0.98105   1.00
H2       0.18435    -0.00551   0.95505   1.00
H2       0.19856    -0.05293   0.93272   1.00
C5       0.29703    0.19503    0.54095   1.00
H2       0.33563    0.19789    0.59215   1.00
H2       0.33641    0.15063    0.56541   1.00
H2       0.41914    0.06398    0.81979   1.00
H2       0.45094    0.02239    0.80536   1.00
C5       0.45872    0.07583    0.77066   1.00
H2       0.04975    -0.20116   0.74723   1.00
H2       0.01470    -0.16571   0.72570   1.00
H2       0.02292    -0.21374   0.70172   1.00
H2       0.26537    -0.01820   0.97737   1.00
H2       0.22120    -0.02229   1.00870   1.00
H2       0.24070    -0.06621   0.98339   1.00
H2       0.26980    0.21111    0.55124   1.00
H2       0.31801    0.21664    0.52686   1.00
H2       0.28846    0.17181    0.51873   1.00
H2       0.44746    0.10693    0.77413   1.00
H2       0.48993    0.07402    0.78200   1.00
H2       0.45809    0.06734    0.73852   1.00
C5       0.20152    0.13285    0.36782   1.00
H2       0.18054    0.15224    0.35255   1.00
H2       0.18397    0.11582    0.38910   1.00
C5       0.22100    0.10541    0.33806   1.00
C5       0.19436    0.07045    0.32877   1.00
H2       0.24919    0.09441    0.34985   1.00
O3       0.30985    0.21214    0.52000   1.00
C4       0.24982    0.25038    0.47900   1.00
C3c      0.23057    0.22123    0.45757   1.00
H1       0.21524    0.19822    0.47275   1.00
C3d      0.26914    0.28041    0.45865   1.00
C3       0.23121    0.22092    0.41646   1.00
O2       0.20784    0.19432    0.39752   1.00
C3       0.27047    0.27978    0.41773   1.00
H1       0.28681    0.30265    0.40343   1.00
C2       0.25152    0.25028    0.39561   1.00
C5       0.34472    0.23406    0.52121   1.00
H2       0.35532    0.23863    0.55162   1.00
H2       0.34070    0.26325    0.50734   1.00
C5       0.37568    0.21139    0.49871   1.00
H2       0.36462    0.20587    0.46863   1.00
H2       0.37971    0.18246    0.51302   1.00
C5       0.41447    0.23400    0.49738   1.00
H2       0.42555    0.23986    0.52732   1.00
H2       0.41078    0.26230    0.48189   1.00
C5       0.44553    0.20998    0.47555   1.00
C5       0.26674    0.33963    0.48895   1.00
C5       0.22937    0.16009    0.38930   1.00
H2       0.24317    0.33008    0.50912   1.00
H2       0.25313    0.35360    0.46288   1.00
H2       0.23953    0.14632    0.41700   1.00
H2       0.25579    0.16602    0.37105   1.00
H2       0.22639    0.12062    0.30970   1.00
H2       0.25239    0.38656    0.55753   1.00
H2       0.24551    0.41353    0.51237   1.00
C2       0.25264    0.25047    0.60395   1.00
C3       0.22115    0.26804    0.58403   1.00
O2       0.19653    0.29343    0.60326   1.00
C3       0.28177    0.23142    0.58174   1.00
H1       0.30572    0.21682    0.59615   1.00
C3a      0.21998    0.26711    0.54287   1.00
H1       0.19688    0.28261    0.52798   1.00
C3b      0.28118    0.23162    0.54078   1.00
C4       0.25018    0.24962    0.52100   1.00
O3       0.29099    0.30810    0.47833   1.00
C5       0.16121    0.27454    0.61280   1.00
H2       0.14601    0.26370    0.58609   1.00
C5       0.13551    0.30454    0.63326   1.00
H2       0.16647    0.24939    0.63274   1.00
H2       0.12191    0.32354    0.61068   1.00
H2       0.15500    0.32363    0.65093   1.00
C5       0.10396    0.28580    0.65918   1.00
H2       0.08676    0.26453    0.64176   1.00
C5       0.07609    0.31704    0.67547   1.00
H2       0.11714    0.27069    0.68493   1.00
C5       0.29212    0.36961    0.50983   1.00
H2       0.31125    0.38401    0.48785   1.00
H2       0.31164    0.35381    0.53048   1.00
C5       0.26754    0.39998    0.53200   1.00
C5       0.29408    0.43262    0.54775   1.00
H2       0.17090    0.07982    0.30714   1.00
C5       0.21885    0.03730    0.31088   1.00
H2       0.17997    0.05973    0.35677   1.00
C5       0.48105    0.23600    0.46663   1.00
H2       0.45505    0.18435    0.49449   1.00
H2       0.43272    0.19856    0.44707   1.00
C5       0.04095    0.29703    0.69503   1.00
H2       0.09215    0.33563    0.69789   1.00
H2       0.06541    0.33641    0.65063   1.00
H2       0.31979    0.41914    0.56398   1.00
H2       0.30536    0.45094    0.52239   1.00
C5       0.27066    0.45872    0.57583   1.00
H2       0.24723    0.04975    0.29884   1.00
H2       0.22570    0.01470    0.33429   1.00
H2       0.20172    0.02292    0.28626   1.00
H2       0.47737    0.26537    0.48180   1.00
H2       0.50870    0.22120    0.47771   1.00
H2       0.48339    0.24070    0.43379   1.00
H2       0.05124    0.26980    0.71111   1.00
H2       0.02686    0.31801    0.71664   1.00
H2       0.01873    0.28846    0.67181   1.00
H2       0.27413    0.44746    0.60693   1.00
H2       0.28200    0.48993    0.57402   1.00
H2       0.23852    0.45809    0.56734   1.00
C5       0.20152    0.86715    0.63218   1.00
H2       0.18054    0.84776    0.64745   1.00
H2       0.18397    0.88418    0.61090   1.00
C5       0.22100    0.89459    0.66194   1.00
C5       0.19436    0.92955    0.67123   1.00
H2       0.24919    0.90559    0.65015   1.00
O3       0.30985    0.78786    0.48000   1.00
C4       0.24982    0.74962    0.52100   1.00
C3c      0.23057    0.77877    0.54243   1.00
H1       0.21524    0.80178    0.52725   1.00
C3d      0.26914    0.71959    0.54135   1.00
C3       0.23121    0.77908    0.58354   1.00
O2       0.20784    0.80568    0.60248   1.00
C3       0.27047    0.72022    0.58227   1.00
H1       0.28681    0.69735    0.59657   1.00
C2       0.25152    0.74972    0.60439   1.00
C5       0.34472    0.76594    0.47879   1.00
H2       0.35532    0.76137    0.44838   1.00
H2       0.34070    0.73675    0.49266   1.00
C5       0.37568    0.78861    0.50129   1.00
H2       0.36462    0.79413    0.53137   1.00
H2       0.37971    0.81754    0.48698   1.00
C5       0.41447    0.76600    0.50262   1.00
H2       0.42555    0.76014    0.47268   1.00
H2       0.41078    0.73770    0.51811   1.00
C5       0.44553    0.79002    0.52445   1.00
C5       0.26674    0.66037    0.51105   1.00
C5       0.22937    0.83991    0.61070   1.00
H2       0.24317    0.66992    0.49088   1.00
H2       0.25313    0.64640    0.53712   1.00
H2       0.23953    0.85368    0.58300   1.00
H2       0.25579    0.83398    0.62895   1.00
H2       0.22639    0.87938    0.69030   1.00
H2       0.25239    0.61344    0.44247   1.00
H2       0.24551    0.58647    0.48763   1.00
C2       0.25264    0.74953    0.39605   1.00
C3       0.22115    0.73196    0.41597   1.00
O2       0.19653    0.70657    0.39674   1.00
C3       0.28177    0.76858    0.41826   1.00
H1       0.30572    0.78318    0.40385   1.00
C3a      0.21998    0.73289    0.45713   1.00
H1       0.19688    0.71739    0.47202   1.00
C3b      0.28118    0.76838    0.45922   1.00
C4       0.25018    0.75038    0.47900   1.00
O3       0.29099    0.69190    0.52167   1.00
C5       0.16121    0.72546    0.38720   1.00
H2       0.14601    0.73630    0.41391   1.00
C5       0.13551    0.69546    0.36674   1.00
H2       0.16647    0.75061    0.36726   1.00
H2       0.12191    0.67646    0.38932   1.00
H2       0.15500    0.67637    0.34907   1.00
C5       0.10396    0.71420    0.34082   1.00
H2       0.08676    0.73547    0.35824   1.00
C5       0.07609    0.68296    0.32453   1.00
H2       0.11714    0.72931    0.31507   1.00
C5       0.29212    0.63039    0.49017   1.00
H2       0.31125    0.61599    0.51215   1.00
H2       0.31164    0.64619    0.46952   1.00
C5       0.26754    0.60002    0.46800   1.00
C5       0.29408    0.56738    0.45225   1.00
H2       0.17090    0.92018    0.69286   1.00
C5       0.21885    0.96270    0.68912   1.00
H2       0.17997    0.94027    0.64323   1.00
C5       0.48105    0.76400    0.53337   1.00
H2       0.45505    0.81565    0.50551   1.00
H2       0.43272    0.80144    0.55293   1.00
C5       0.04095    0.70297    0.30497   1.00
H2       0.09215    0.66437    0.30211   1.00
H2       0.06541    0.66359    0.34937   1.00
H2       0.31979    0.58086    0.43602   1.00
H2       0.30536    0.54906    0.47761   1.00
C5       0.27066    0.54128    0.42417   1.00
H2       0.24723    0.95025    0.70116   1.00
H2       0.22570    0.98530    0.66571   1.00
H2       0.20172    0.97708    0.71374   1.00
H2       0.47737    0.73463    0.51820   1.00
H2       0.50870    0.77880    0.52229   1.00
H2       0.48339    0.75930    0.56621   1.00
H2       0.05124    0.73020    0.28889   1.00
H2       0.02686    0.68199    0.28336   1.00
H2       0.01873    0.71154    0.32819   1.00
H2       0.27413    0.55254    0.39307   1.00
H2       0.28200    0.51007    0.42598   1.00
H2       0.23852    0.54191    0.43266   1.00
C5       0.36715    1.13218    0.20152   1.00
H2       0.34776    1.14745    0.18054   1.00
H2       0.38418    1.11090    0.18397   1.00
C5       0.39459    1.16194    0.22100   1.00
C5       0.42955    1.17123    0.19436   1.00
H2       0.40559    1.15015    0.24919   1.00
O3       0.28786    0.98000    0.30985   1.00
C4       0.24962    1.02100    0.24982   1.00
C3c      0.27877    1.04243    0.23057   1.00
H1       0.30178    1.02725    0.21524   1.00
C3d      0.21959    1.04135    0.26914   1.00
C3       0.27908    1.08354    0.23121   1.00
O2       0.30568    1.10248    0.20784   1.00
C3       0.22022    1.08227    0.27047   1.00
H1       0.19735    1.09657    0.28681   1.00
C2       0.24972    1.10439    0.25152   1.00
C5       0.26594    0.97879    0.34472   1.00
H2       0.26137    0.94838    0.35532   1.00
H2       0.23675    0.99266    0.34070   1.00
C5       0.28861    1.00129    0.37568   1.00
H2       0.29413    1.03137    0.36462   1.00
H2       0.31754    0.98698    0.37971   1.00
C5       0.26600    1.00262    0.41447   1.00
H2       0.26014    0.97268    0.42555   1.00
H2       0.23770    1.01811    0.41078   1.00
C5       0.29002    1.02445    0.44553   1.00
C5       0.16037    1.01105    0.26674   1.00
C5       0.33991    1.11070    0.22937   1.00
H2       0.16992    0.99088    0.24317   1.00
H2       0.14640    1.03712    0.25313   1.00
H2       0.35368    1.08300    0.23953   1.00
H2       0.33398    1.12895    0.25579   1.00
H2       0.37938    1.19030    0.22639   1.00
H2       0.11344    0.94247    0.25239   1.00
H2       0.08647    0.98763    0.24551   1.00
C2       0.24953    0.89605    0.25264   1.00
C3       0.23196    0.91597    0.22115   1.00
O2       0.20657    0.89674    0.19653   1.00
C3       0.26858    0.91826    0.28177   1.00
H1       0.28318    0.90385    0.30572   1.00
C3a      0.23289    0.95713    0.21998   1.00
H1       0.21739    0.97202    0.19688   1.00
C3b      0.26838    0.95922    0.28118   1.00
C4       0.25038    0.97900    0.25018   1.00
O3       0.19190    1.02167    0.29099   1.00
C5       0.22546    0.88720    0.16121   1.00
H2       0.23630    0.91391    0.14601   1.00
C5       0.19546    0.86674    0.13551   1.00
H2       0.25061    0.86726    0.16647   1.00
H2       0.17646    0.88932    0.12191   1.00
H2       0.17637    0.84907    0.15500   1.00
C5       0.21420    0.84082    0.10396   1.00
H2       0.23547    0.85824    0.08676   1.00
C5       0.18296    0.82453    0.07609   1.00
H2       0.22931    0.81507    0.11714   1.00
C5       0.13039    0.99017    0.29212   1.00
H2       0.11599    1.01215    0.31125   1.00
H2       0.14619    0.96952    0.31164   1.00
C5       0.10002    0.96800    0.26754   1.00
C5       0.06738    0.95225    0.29408   1.00
H2       0.42018    1.19286    0.17090   1.00
C5       0.46270    1.18912    0.21885   1.00
H2       0.44027    1.14323    0.17997   1.00
C5       0.26400    1.03337    0.48105   1.00
H2       0.31565    1.00551    0.45505   1.00
H2       0.30144    1.05293    0.43272   1.00
C5       0.20297    0.80497    0.04095   1.00
H2       0.16437    0.80211    0.09215   1.00
H2       0.16359    0.84937    0.06541   1.00
H2       0.08086    0.93602    0.31979   1.00
H2       0.04906    0.97761    0.30536   1.00
C5       0.04128    0.92417    0.27066   1.00
H2       0.45025    1.20116    0.24723   1.00
H2       0.48530    1.16571    0.22570   1.00
H2       0.47708    1.21374    0.20172   1.00
H2       0.23463    1.01820    0.47737   1.00
H2       0.27880    1.02229    0.50870   1.00
H2       0.25930    1.06621    0.48339   1.00
H2       0.23020    0.78889    0.05124   1.00
H2       0.18199    0.78336    0.02686   1.00
H2       0.21154    0.82819    0.01873   1.00
H2       0.05254    0.89307    0.27413   1.00
H2       0.01007    0.92598    0.28200   1.00
H2       0.04191    0.93266    0.23852   1.00
C5       -0.13218   0.70152    0.13285   1.00
H2       -0.14745   0.68054    0.15224   1.00
H2       -0.11090   0.68397    0.11582   1.00
C5       -0.16194   0.72100    0.10541   1.00
C5       -0.17123   0.69436    0.07045   1.00
H2       -0.15015   0.74919    0.09441   1.00
O3       0.02000    0.80985    0.21214   1.00
C4       -0.02100   0.74982    0.25038   1.00
C3c      -0.04243   0.73057    0.22123   1.00
H1       -0.02725   0.71524    0.19822   1.00
C3d      -0.04135   0.76914    0.28041   1.00
C3       -0.08354   0.73121    0.22092   1.00
O2       -0.10248   0.70784    0.19432   1.00
C3       -0.08227   0.77047    0.27978   1.00
H1       -0.09657   0.78681    0.30265   1.00
C2       -0.10439   0.75152    0.25028   1.00
C5       0.02121    0.84472    0.23406   1.00
H2       0.05162    0.85532    0.23863   1.00
H2       0.00734    0.84070    0.26325   1.00
C5       -0.00129   0.87568    0.21139   1.00
H2       -0.03137   0.86462    0.20587   1.00
H2       0.01302    0.87971    0.18246   1.00
C5       -0.00262   0.91447    0.23400   1.00
H2       0.02732    0.92555    0.23986   1.00
H2       -0.01811   0.91078    0.26230   1.00
C5       -0.02445   0.94553    0.20998   1.00
C5       -0.01105   0.76674    0.33963   1.00
C5       -0.11070   0.72937    0.16009   1.00
H2       0.00912    0.74317    0.33008   1.00
H2       -0.03712   0.75313    0.35360   1.00
H2       -0.08300   0.73953    0.14632   1.00
H2       -0.12895   0.75579    0.16602   1.00
H2       -0.19030   0.72639    0.12062   1.00
H2       0.05753    0.75239    0.38656   1.00
H2       0.01237    0.74551    0.41353   1.00
C2       0.10395    0.75264    0.25047   1.00
C3       0.08403    0.72115    0.26804   1.00
O2       0.10326    0.69653    0.29343   1.00
C3       0.08174    0.78177    0.23142   1.00
H1       0.09615    0.80572    0.21682   1.00
C3a      0.04287    0.71998    0.26711   1.00
H1       0.02798    0.69688    0.28261   1.00
C3b      0.04078    0.78118    0.23162   1.00
C4       0.02100    0.75018    0.24962   1.00
O3       -0.02167   0.79099    0.30810   1.00
C5       0.11280    0.66121    0.27454   1.00
H2       0.08609    0.64601    0.26370   1.00
C5       0.13326    0.63551    0.30454   1.00
H2       0.13274    0.66647    0.24939   1.00
H2       0.11068    0.62191    0.32354   1.00
H2       0.15093    0.65500    0.32363   1.00
C5       0.15918    0.60396    0.28580   1.00
H2       0.14176    0.58676    0.26453   1.00
C5       0.17547    0.57609    0.31704   1.00
H2       0.18493    0.61714    0.27069   1.00
C5       0.00983    0.79212    0.36961   1.00
H2       -0.01215   0.81125    0.38401   1.00
H2       0.03048    0.81164    0.35381   1.00
C5       0.03200    0.76754    0.39998   1.00
C5       0.04775    0.79408    0.43262   1.00
H2       -0.19286   0.67090    0.07982   1.00
C5       -0.18912   0.71885    0.03730   1.00
H2       -0.14323   0.67997    0.05973   1.00
C5       -0.03337   0.98105    0.23600   1.00
H2       -0.00551   0.95505    0.18435   1.00
H2       -0.05293   0.93272    0.19856   1.00
C5       0.19503    0.54095    0.29703   1.00
H2       0.19789    0.59215    0.33563   1.00
H2       0.15063    0.56541    0.33641   1.00
H2       0.06398    0.81979    0.41914   1.00
H2       0.02239    0.80536    0.45094   1.00
C5       0.07583    0.77066    0.45872   1.00
H2       -0.20116   0.74723    0.04975   1.00
H2       -0.16571   0.72570    0.01470   1.00
H2       -0.21374   0.70172    0.02292   1.00
H2       -0.01820   0.97737    0.26537   1.00
H2       -0.02229   1.00870    0.22120   1.00
H2       -0.06621   0.98339    0.24070   1.00
H2       0.21111    0.55124    0.26980   1.00
H2       0.21664    0.52686    0.31801   1.00
H2       0.17181    0.51873    0.28846   1.00
H2       0.10693    0.77413    0.44746   1.00
H2       0.07402    0.78200    0.48993   1.00
H2       0.06734    0.73852    0.45809   1.00
C5       0.63218    0.70152    0.36715   1.00
H2       0.64745    0.68054    0.34776   1.00
H2       0.61090    0.68397    0.38418   1.00
C5       0.66194    0.72100    0.39459   1.00
C5       0.67123    0.69436    0.42955   1.00
H2       0.65015    0.74919    0.40559   1.00
O3       0.48000    0.80985    0.28786   1.00
C4       0.52100    0.74982    0.24962   1.00
C3c      0.54243    0.73057    0.27877   1.00
H1       0.52725    0.71524    0.30178   1.00
C3d      0.54135    0.76914    0.21959   1.00
C3       0.58354    0.73121    0.27908   1.00
O2       0.60248    0.70784    0.30568   1.00
C3       0.58227    0.77047    0.22022   1.00
H1       0.59657    0.78681    0.19735   1.00
C2       0.60439    0.75152    0.24972   1.00
C5       0.47879    0.84472    0.26594   1.00
H2       0.44838    0.85532    0.26137   1.00
H2       0.49266    0.84070    0.23675   1.00
C5       0.50129    0.87568    0.28861   1.00
H2       0.53137    0.86462    0.29413   1.00
H2       0.48698    0.87971    0.31754   1.00
C5       0.50262    0.91447    0.26600   1.00
H2       0.47268    0.92555    0.26014   1.00
H2       0.51811    0.91078    0.23770   1.00
C5       0.52445    0.94553    0.29002   1.00
C5       0.51105    0.76674    0.16037   1.00
C5       0.61070    0.72937    0.33991   1.00
H2       0.49088    0.74317    0.16992   1.00
H2       0.53712    0.75313    0.14640   1.00
H2       0.58300    0.73953    0.35368   1.00
H2       0.62895    0.75579    0.33398   1.00
H2       0.69030    0.72639    0.37938   1.00
H2       0.44247    0.75239    0.11344   1.00
H2       0.48763    0.74551    0.08647   1.00
C2       0.39605    0.75264    0.24953   1.00
C3       0.41597    0.72115    0.23196   1.00
O2       0.39674    0.69653    0.20657   1.00
C3       0.41826    0.78177    0.26858   1.00
H1       0.40385    0.80572    0.28318   1.00
C3a      0.45713    0.71998    0.23289   1.00
H1       0.47202    0.69688    0.21739   1.00
C3b      0.45922    0.78118    0.26838   1.00
C4       0.47900    0.75018    0.25038   1.00
O3       0.52167    0.79099    0.19190   1.00
C5       0.38720    0.66121    0.22546   1.00
H2       0.41391    0.64601    0.23630   1.00
C5       0.36674    0.63551    0.19546   1.00
H2       0.36726    0.66647    0.25061   1.00
H2       0.38932    0.62191    0.17646   1.00
H2       0.34907    0.65500    0.17637   1.00
C5       0.34082    0.60396    0.21420   1.00
H2       0.35824    0.58676    0.23547   1.00
C5       0.32453    0.57609    0.18296   1.00
H2       0.31507    0.61714    0.22931   1.00
C5       0.49017    0.79212    0.13039   1.00
H2       0.51215    0.81125    0.11599   1.00
H2       0.46952    0.81164    0.14619   1.00
C5       0.46800    0.76754    0.10002   1.00
C5       0.45225    0.79408    0.06738   1.00
H2       0.69286    0.67090    0.42018   1.00
C5       0.68912    0.71885    0.46270   1.00
H2       0.64323    0.67997    0.44027   1.00
C5       0.53337    0.98105    0.26400   1.00
H2       0.50551    0.95505    0.31565   1.00
H2       0.55293    0.93272    0.30144   1.00
C5       0.30497    0.54095    0.20297   1.00
H2       0.30211    0.59215    0.16437   1.00
H2       0.34937    0.56541    0.16359   1.00
H2       0.43602    0.81979    0.08086   1.00
H2       0.47761    0.80536    0.04906   1.00
C5       0.42417    0.77066    0.04128   1.00
H2       0.70116    0.74723    0.45025   1.00
H2       0.66571    0.72570    0.48530   1.00
H2       0.71374    0.70172    0.47708   1.00
H2       0.51820    0.97737    0.23463   1.00
H2       0.52229    1.00870    0.27880   1.00
H2       0.56621    0.98339    0.25930   1.00
H2       0.28889    0.55124    0.23020   1.00
H2       0.28336    0.52686    0.18199   1.00
H2       0.32819    0.51873    0.21154   1.00
H2       0.39307    0.77413    0.05254   1.00
H2       0.42598    0.78200    0.01007   1.00
H2       0.43266    0.73852    0.04191   1.00
C5       0.13285    0.36782    0.20152   1.00
H2       0.15224    0.35255    0.18054   1.00
H2       0.11582    0.38910    0.18397   1.00
C5       0.10541    0.33806    0.22100   1.00
C5       0.07045    0.32877    0.19436   1.00
H2       0.09441    0.34985    0.24919   1.00
O3       0.21214    0.52000    0.30985   1.00
C4       0.25038    0.47900    0.24982   1.00
C3c      0.22123    0.45757    0.23057   1.00
H1       0.19822    0.47275    0.21524   1.00
C3d      0.28041    0.45865    0.26914   1.00
C3       0.22092    0.41646    0.23121   1.00
O2       0.19432    0.39752    0.20784   1.00
C3       0.27978    0.41773    0.27047   1.00
H1       0.30265    0.40343    0.28681   1.00
C2       0.25028    0.39561    0.25152   1.00
C5       0.23406    0.52121    0.34472   1.00
H2       0.23863    0.55162    0.35532   1.00
H2       0.26325    0.50734    0.34070   1.00
C5       0.21139    0.49871    0.37568   1.00
H2       0.20587    0.46863    0.36462   1.00
H2       0.18246    0.51302    0.37971   1.00
C5       0.23400    0.49738    0.41447   1.00
H2       0.23986    0.52732    0.42555   1.00
H2       0.26230    0.48189    0.41078   1.00
C5       0.20998    0.47555    0.44553   1.00
C5       0.33963    0.48895    0.26674   1.00
C5       0.16009    0.38930    0.22937   1.00
H2       0.33008    0.50912    0.24317   1.00
H2       0.35360    0.46288    0.25313   1.00
H2       0.14632    0.41700    0.23953   1.00
H2       0.16602    0.37105    0.25579   1.00
H2       0.12062    0.30970    0.22639   1.00
H2       0.38656    0.55753    0.25239   1.00
H2       0.41353    0.51237    0.24551   1.00
C2       0.25047    0.60395    0.25264   1.00
C3       0.26804    0.58403    0.22115   1.00
O2       0.29343    0.60326    0.19653   1.00
C3       0.23142    0.58174    0.28177   1.00
H1       0.21682    0.59615    0.30572   1.00
C3a      0.26711    0.54287    0.21998   1.00
H1       0.28261    0.52798    0.19688   1.00
C3b      0.23162    0.54078    0.28118   1.00
C4       0.24962    0.52100    0.25018   1.00
O3       0.30810    0.47833    0.29099   1.00
C5       0.27454    0.61280    0.16121   1.00
H2       0.26370    0.58609    0.14601   1.00
C5       0.30454    0.63326    0.13551   1.00
H2       0.24939    0.63274    0.16647   1.00
H2       0.32354    0.61068    0.12191   1.00
H2       0.32363    0.65093    0.15500   1.00
C5       0.28580    0.65918    0.10396   1.00
H2       0.26453    0.64176    0.08676   1.00
C5       0.31704    0.67547    0.07609   1.00
H2       0.27069    0.68493    0.11714   1.00
C5       0.36961    0.50983    0.29212   1.00
H2       0.38401    0.48785    0.31125   1.00
H2       0.35381    0.53048    0.31164   1.00
C5       0.39998    0.53200    0.26754   1.00
C5       0.43262    0.54775    0.29408   1.00
H2       0.07982    0.30714    0.17090   1.00
C5       0.03730    0.31088    0.21885   1.00
H2       0.05973    0.35677    0.17997   1.00
C5       0.23600    0.46663    0.48105   1.00
H2       0.18435    0.49449    0.45505   1.00
H2       0.19856    0.44707    0.43272   1.00
C5       0.29703    0.69503    0.04095   1.00
H2       0.33563    0.69789    0.09215   1.00
H2       0.33641    0.65063    0.06541   1.00
H2       0.41914    0.56398    0.31979   1.00
H2       0.45094    0.52239    0.30536   1.00
C5       0.45872    0.57583    0.27066   1.00
H2       0.04975    0.29884    0.24723   1.00
H2       0.01470    0.33429    0.22570   1.00
H2       0.02292    0.28626    0.20172   1.00
H2       0.26537    0.48180    0.47737   1.00
H2       0.22120    0.47771    0.50870   1.00
H2       0.24070    0.43379    0.48339   1.00
H2       0.26980    0.71111    0.05124   1.00
H2       0.31801    0.71664    0.02686   1.00
H2       0.28846    0.67181    0.01873   1.00
H2       0.44746    0.60693    0.27413   1.00
H2       0.48993    0.57402    0.28200   1.00
H2       0.45809    0.56734    0.23852   1.00
C5       0.20152    0.63285    -0.13218   1.00
H2       0.18054    0.65224    -0.14745   1.00
H2       0.18397    0.61582    -0.11090   1.00
C5       0.22100    0.60541    -0.16194   1.00
C5       0.19436    0.57045    -0.17123   1.00
H2       0.24919    0.59441    -0.15015   1.00
O3       0.30985    0.71214    0.02000   1.00
C4       0.24982    0.75038    -0.02100   1.00
C3c      0.23057    0.72123    -0.04243   1.00
H1       0.21524    0.69822    -0.02725   1.00
C3d      0.26914    0.78041    -0.04135   1.00
C3       0.23121    0.72092    -0.08354   1.00
O2       0.20784    0.69432    -0.10248   1.00
C3       0.27047    0.77978    -0.08227   1.00
H1       0.28681    0.80265    -0.09657   1.00
C2       0.25152    0.75028    -0.10439   1.00
C5       0.34472    0.73406    0.02121   1.00
H2       0.35532    0.73863    0.05162   1.00
H2       0.34070    0.76325    0.00734   1.00
C5       0.37568    0.71139    -0.00129   1.00
H2       0.36462    0.70587    -0.03137   1.00
H2       0.37971    0.68246    0.01302   1.00
C5       0.41447    0.73400    -0.00262   1.00
H2       0.42555    0.73986    0.02732   1.00
H2       0.41078    0.76230    -0.01811   1.00
C5       0.44553    0.70998    -0.02445   1.00
C5       0.26674    0.83963    -0.01105   1.00
C5       0.22937    0.66009    -0.11070   1.00
H2       0.24317    0.83008    0.00912   1.00
H2       0.25313    0.85360    -0.03712   1.00
H2       0.23953    0.64632    -0.08300   1.00
H2       0.25579    0.66602    -0.12895   1.00
H2       0.22639    0.62062    -0.19030   1.00
H2       0.25239    0.88656    0.05753   1.00
H2       0.24551    0.91353    0.01237   1.00
C2       0.25264    0.75047    0.10395   1.00
C3       0.22115    0.76804    0.08403   1.00
O2       0.19653    0.79343    0.10326   1.00
C3       0.28177    0.73142    0.08174   1.00
H1       0.30572    0.71682    0.09615   1.00
C3a      0.21998    0.76711    0.04287   1.00
H1       0.19688    0.78261    0.02798   1.00
C3b      0.28118    0.73162    0.04078   1.00
C4       0.25018    0.74962    0.02100   1.00
O3       0.29099    0.80810    -0.02167   1.00
C5       0.16121    0.77454    0.11280   1.00
H2       0.14601    0.76370    0.08609   1.00
C5       0.13551    0.80454    0.13326   1.00
H2       0.16647    0.74939    0.13274   1.00
H2       0.12191    0.82354    0.11068   1.00
H2       0.15500    0.82363    0.15093   1.00
C5       0.10396    0.78580    0.15918   1.00
H2       0.08676    0.76453    0.14176   1.00
C5       0.07609    0.81704    0.17547   1.00
H2       0.11714    0.77069    0.18493   1.00
C5       0.29212    0.86961    0.00983   1.00
H2       0.31125    0.88401    -0.01215   1.00
H2       0.31164    0.85381    0.03048   1.00
C5       0.26754    0.89998    0.03200   1.00
C5       0.29408    0.93262    0.04775   1.00
H2       0.17090    0.57982    -0.19286   1.00
C5       0.21885    0.53730    -0.18912   1.00
H2       0.17997    0.55973    -0.14323   1.00
C5       0.48105    0.73600    -0.03337   1.00
H2       0.45505    0.68435    -0.00551   1.00
H2       0.43272    0.69856    -0.05293   1.00
C5       0.04095    0.79703    0.19503   1.00
H2       0.09215    0.83563    0.19789   1.00
H2       0.06541    0.83641    0.15063   1.00
H2       0.31979    0.91914    0.06398   1.00
H2       0.30536    0.95094    0.02239   1.00
C5       0.27066    0.95872    0.07583   1.00
H2       0.24723    0.54975    -0.20116   1.00
H2       0.22570    0.51470    -0.16571   1.00
H2       0.20172    0.52292    -0.21374   1.00
H2       0.47737    0.76537    -0.01820   1.00
H2       0.50870    0.72120    -0.02229   1.00
H2       0.48339    0.74070    -0.06621   1.00
H2       0.05124    0.76980    0.21111   1.00
H2       0.02686    0.81801    0.21664   1.00
H2       0.01873    0.78846    0.17181   1.00
H2       0.27413    0.94746    0.10693   1.00
H2       0.28200    0.98993    0.07402   1.00
H2       0.23852    0.95809    0.06734   1.00
C5       0.70152    0.36715    0.63218   1.00
H2       0.68054    0.34776    0.64745   1.00
H2       0.68397    0.38418    0.61090   1.00
C5       0.72100    0.39459    0.66194   1.00
C5       0.69436    0.42955    0.67123   1.00
H2       0.74919    0.40559    0.65015   1.00
O3       0.80985    0.28786    0.48000   1.00
C4       0.74982    0.24962    0.52100   1.00
C3c      0.73057    0.27877    0.54243   1.00
H1       0.71524    0.30178    0.52725   1.00
C3d      0.76914    0.21959    0.54135   1.00
C3       0.73121    0.27908    0.58354   1.00
O2       0.70784    0.30568    0.60248   1.00
C3       0.77047    0.22022    0.58227   1.00
H1       0.78681    0.19735    0.59657   1.00
C2       0.75152    0.24972    0.60439   1.00
C5       0.84472    0.26594    0.47879   1.00
H2       0.85532    0.26137    0.44838   1.00
H2       0.84070    0.23675    0.49266   1.00
C5       0.87568    0.28861    0.50129   1.00
H2       0.86462    0.29413    0.53137   1.00
H2       0.87971    0.31754    0.48698   1.00
C5       0.91447    0.26600    0.50262   1.00
H2       0.92555    0.26014    0.47268   1.00
H2       0.91078    0.23770    0.51811   1.00
C5       0.94553    0.29002    0.52445   1.00
C5       0.76674    0.16037    0.51105   1.00
C5       0.72937    0.33991    0.61070   1.00
H2       0.74317    0.16992    0.49088   1.00
H2       0.75313    0.14640    0.53712   1.00
H2       0.73953    0.35368    0.58300   1.00
H2       0.75579    0.33398    0.62895   1.00
H2       0.72639    0.37938    0.69030   1.00
H2       0.75239    0.11344    0.44247   1.00
H2       0.74551    0.08647    0.48763   1.00
C2       0.75264    0.24953    0.39605   1.00
C3       0.72115    0.23196    0.41597   1.00
O2       0.69653    0.20657    0.39674   1.00
C3       0.78177    0.26858    0.41826   1.00
H1       0.80572    0.28318    0.40385   1.00
C3a      0.71998    0.23289    0.45713   1.00
H1       0.69688    0.21739    0.47202   1.00
C3b      0.78118    0.26838    0.45922   1.00
C4       0.75018    0.25038    0.47900   1.00
O3       0.79099    0.19190    0.52167   1.00
C5       0.66121    0.22546    0.38720   1.00
H2       0.64601    0.23630    0.41391   1.00
C5       0.63551    0.19546    0.36674   1.00
H2       0.66647    0.25061    0.36726   1.00
H2       0.62191    0.17646    0.38932   1.00
H2       0.65500    0.17637    0.34907   1.00
C5       0.60396    0.21420    0.34082   1.00
H2       0.58676    0.23547    0.35824   1.00
C5       0.57609    0.18296    0.32453   1.00
H2       0.61714    0.22931    0.31507   1.00
C5       0.79212    0.13039    0.49017   1.00
H2       0.81125    0.11599    0.51215   1.00
H2       0.81164    0.14619    0.46952   1.00
C5       0.76754    0.10002    0.46800   1.00
C5       0.79408    0.06738    0.45225   1.00
H2       0.67090    0.42018    0.69286   1.00
C5       0.71885    0.46270    0.68912   1.00
H2       0.67997    0.44027    0.64323   1.00
C5       0.98105    0.26400    0.53337   1.00
H2       0.95505    0.31565    0.50551   1.00
H2       0.93272    0.30144    0.55293   1.00
C5       0.54095    0.20297    0.30497   1.00
H2       0.59215    0.16437    0.30211   1.00
H2       0.56541    0.16359    0.34937   1.00
H2       0.81979    0.08086    0.43602   1.00
H2       0.80536    0.04906    0.47761   1.00
C5       0.77066    0.04128    0.42417   1.00
H2       0.74723    0.45025    0.70116   1.00
H2       0.72570    0.48530    0.66571   1.00
H2       0.70172    0.47708    0.71374   1.00
H2       0.97737    0.23463    0.51820   1.00
H2       1.00870    0.27880    0.52229   1.00
H2       0.98339    0.25930    0.56621   1.00
H2       0.55124    0.23020    0.28889   1.00
H2       0.52686    0.18199    0.28336   1.00
H2       0.51873    0.21154    0.32819   1.00
H2       0.77413    0.05254    0.39307   1.00
H2       0.78200    0.01007    0.42598   1.00
H2       0.73852    0.04191    0.43266   1.00
C5       0.86715    0.63218    0.20152   1.00
H2       0.84776    0.64745    0.18054   1.00
H2       0.88418    0.61090    0.18397   1.00
C5       0.89459    0.66194    0.22100   1.00
C5       0.92955    0.67123    0.19436   1.00
H2       0.90559    0.65015    0.24919   1.00
O3       0.78786    0.48000    0.30985   1.00
C4       0.74962    0.52100    0.24982   1.00
C3c      0.77877    0.54243    0.23057   1.00
H1       0.80178    0.52725    0.21524   1.00
C3d      0.71959    0.54135    0.26914   1.00
C3       0.77908    0.58354    0.23121   1.00
O2       0.80568    0.60248    0.20784   1.00
C3       0.72022    0.58227    0.27047   1.00
H1       0.69735    0.59657    0.28681   1.00
C2       0.74972    0.60439    0.25152   1.00
C5       0.76594    0.47879    0.34472   1.00
H2       0.76137    0.44838    0.35532   1.00
H2       0.73675    0.49266    0.34070   1.00
C5       0.78861    0.50129    0.37568   1.00
H2       0.79413    0.53137    0.36462   1.00
H2       0.81754    0.48698    0.37971   1.00
C5       0.76600    0.50262    0.41447   1.00
H2       0.76014    0.47268    0.42555   1.00
H2       0.73770    0.51811    0.41078   1.00
C5       0.79002    0.52445    0.44553   1.00
C5       0.66037    0.51105    0.26674   1.00
C5       0.83991    0.61070    0.22937   1.00
H2       0.66992    0.49088    0.24317   1.00
H2       0.64640    0.53712    0.25313   1.00
H2       0.85368    0.58300    0.23953   1.00
H2       0.83398    0.62895    0.25579   1.00
H2       0.87938    0.69030    0.22639   1.00
H2       0.61344    0.44247    0.25239   1.00
H2       0.58647    0.48763    0.24551   1.00
C2       0.74953    0.39605    0.25264   1.00
C3       0.73196    0.41597    0.22115   1.00
O2       0.70657    0.39674    0.19653   1.00
C3       0.76858    0.41826    0.28177   1.00
H1       0.78318    0.40385    0.30572   1.00
C3a      0.73289    0.45713    0.21998   1.00
H1       0.71739    0.47202    0.19688   1.00
C3b      0.76838    0.45922    0.28118   1.00
C4       0.75038    0.47900    0.25018   1.00
O3       0.69190    0.52167    0.29099   1.00
C5       0.72546    0.38720    0.16121   1.00
H2       0.73630    0.41391    0.14601   1.00
C5       0.69546    0.36674    0.13551   1.00
H2       0.75061    0.36726    0.16647   1.00
H2       0.67646    0.38932    0.12191   1.00
H2       0.67637    0.34907    0.15500   1.00
C5       0.71420    0.34082    0.10396   1.00
H2       0.73547    0.35824    0.08676   1.00
C5       0.68296    0.32453    0.07609   1.00
H2       0.72931    0.31507    0.11714   1.00
C5       0.63039    0.49017    0.29212   1.00
H2       0.61599    0.51215    0.31125   1.00
H2       0.64619    0.46952    0.31164   1.00
C5       0.60002    0.46800    0.26754   1.00
C5       0.56738    0.45225    0.29408   1.00
H2       0.92018    0.69286    0.17090   1.00
C5       0.96270    0.68912    0.21885   1.00
H2       0.94027    0.64323    0.17997   1.00
C5       0.76400    0.53337    0.48105   1.00
H2       0.81565    0.50551    0.45505   1.00
H2       0.80144    0.55293    0.43272   1.00
C5       0.70297    0.30497    0.04095   1.00
H2       0.66437    0.30211    0.09215   1.00
H2       0.66359    0.34937    0.06541   1.00
H2       0.58086    0.43602    0.31979   1.00
H2       0.54906    0.47761    0.30536   1.00
C5       0.54128    0.42417    0.27066   1.00
H2       0.95025    0.70116    0.24723   1.00
H2       0.98530    0.66571    0.22570   1.00
H2       0.97708    0.71374    0.20172   1.00
H2       0.73463    0.51820    0.47737   1.00
H2       0.77880    0.52229    0.50870   1.00
H2       0.75930    0.56621    0.48339   1.00
H2       0.73020    0.28889    0.05124   1.00
H2       0.68199    0.28336    0.02686   1.00
H2       0.71154    0.32819    0.01873   1.00
H2       0.55254    0.39307    0.27413   1.00
H2       0.51007    0.42598    0.28200   1.00
H2       0.54191    0.43266    0.23852   1.00
C5       0.36782    0.20152    0.13285   1.00
H2       0.35255    0.18054    0.15224   1.00
H2       0.38910    0.18397    0.11582   1.00
C5       0.33806    0.22100    0.10541   1.00
C5       0.32877    0.19436    0.07045   1.00
H2       0.34985    0.24919    0.09441   1.00
O3       0.52000    0.30985    0.21214   1.00
C4       0.47900    0.24982    0.25038   1.00
C3c      0.45757    0.23057    0.22123   1.00
H1       0.47275    0.21524    0.19822   1.00
C3d      0.45865    0.26914    0.28041   1.00
C3       0.41646    0.23121    0.22092   1.00
O2       0.39752    0.20784    0.19432   1.00
C3       0.41773    0.27047    0.27978   1.00
H1       0.40343    0.28681    0.30265   1.00
C2       0.39561    0.25152    0.25028   1.00
C5       0.52121    0.34472    0.23406   1.00
H2       0.55162    0.35532    0.23863   1.00
H2       0.50734    0.34070    0.26325   1.00
C5       0.49871    0.37568    0.21139   1.00
H2       0.46863    0.36462    0.20587   1.00
H2       0.51302    0.37971    0.18246   1.00
C5       0.49738    0.41447    0.23400   1.00
H2       0.52732    0.42555    0.23986   1.00
H2       0.48189    0.41078    0.26230   1.00
C5       0.47555    0.44553    0.20998   1.00
C5       0.48895    0.26674    0.33963   1.00
C5       0.38930    0.22937    0.16009   1.00
H2       0.50912    0.24317    0.33008   1.00
H2       0.46288    0.25313    0.35360   1.00
H2       0.41700    0.23953    0.14632   1.00
H2       0.37105    0.25579    0.16602   1.00
H2       0.30970    0.22639    0.12062   1.00
H2       0.55753    0.25239    0.38656   1.00
H2       0.51237    0.24551    0.41353   1.00
C2       0.60395    0.25264    0.25047   1.00
C3       0.58403    0.22115    0.26804   1.00
O2       0.60326    0.19653    0.29343   1.00
C3       0.58174    0.28177    0.23142   1.00
H1       0.59615    0.30572    0.21682   1.00
C3a      0.54287    0.21998    0.26711   1.00
H1       0.52798    0.19688    0.28261   1.00
C3b      0.54078    0.28118    0.23162   1.00
C4       0.52100    0.25018    0.24962   1.00
O3       0.47833    0.29099    0.30810   1.00
C5       0.61280    0.16121    0.27454   1.00
H2       0.58609    0.14601    0.26370   1.00
C5       0.63326    0.13551    0.30454   1.00
H2       0.63274    0.16647    0.24939   1.00
H2       0.61068    0.12191    0.32354   1.00
H2       0.65093    0.15500    0.32363   1.00
C5       0.65918    0.10396    0.28580   1.00
H2       0.64176    0.08676    0.26453   1.00
C5       0.67547    0.07609    0.31704   1.00
H2       0.68493    0.11714    0.27069   1.00
C5       0.50983    0.29212    0.36961   1.00
H2       0.48785    0.31125    0.38401   1.00
H2       0.53048    0.31164    0.35381   1.00
C5       0.53200    0.26754    0.39998   1.00
C5       0.54775    0.29408    0.43262   1.00
H2       0.30714    0.17090    0.07982   1.00
C5       0.31088    0.21885    0.03730   1.00
H2       0.35677    0.17997    0.05973   1.00
C5       0.46663    0.48105    0.23600   1.00
H2       0.49449    0.45505    0.18435   1.00
H2       0.44707    0.43272    0.19856   1.00
C5       0.69503    0.04095    0.29703   1.00
H2       0.69789    0.09215    0.33563   1.00
H2       0.65063    0.06541    0.33641   1.00
H2       0.56398    0.31979    0.41914   1.00
H2       0.52239    0.30536    0.45094   1.00
C5       0.57583    0.27066    0.45872   1.00
H2       0.29884    0.24723    0.04975   1.00
H2       0.33429    0.22570    0.01470   1.00
H2       0.28626    0.20172    0.02292   1.00
H2       0.48180    0.47737    0.26537   1.00
H2       0.47771    0.50870    0.22120   1.00
H2       0.43379    0.48339    0.24070   1.00
H2       0.71111    0.05124    0.26980   1.00
H2       0.71664    0.02686    0.31801   1.00
H2       0.67181    0.01873    0.28846   1.00
H2       0.60693    0.27413    0.44746   1.00
H2       0.57402    0.28200    0.48993   1.00
H2       0.56734    0.23852    0.45809   1.00
C5       1.13218    0.20152    0.36715   1.00
H2       1.14745    0.18054    0.34776   1.00
H2       1.11090    0.18397    0.38418   1.00
C5       1.16194    0.22100    0.39459   1.00
C5       1.17123    0.19436    0.42955   1.00
H2       1.15015    0.24919    0.40559   1.00
O3       0.98000    0.30985    0.28786   1.00
C4       1.02100    0.24982    0.24962   1.00
C3c      1.04243    0.23057    0.27877   1.00
H1       1.02725    0.21524    0.30178   1.00
C3d      1.04135    0.26914    0.21959   1.00
C3       1.08354    0.23121    0.27908   1.00
O2       1.10248    0.20784    0.30568   1.00
C3       1.08227    0.27047    0.22022   1.00
H1       1.09657    0.28681    0.19735   1.00
C2       1.10439    0.25152    0.24972   1.00
C5       0.97879    0.34472    0.26594   1.00
H2       0.94838    0.35532    0.26137   1.00
H2       0.99266    0.34070    0.23675   1.00
C5       1.00129    0.37568    0.28861   1.00
H2       1.03137    0.36462    0.29413   1.00
H2       0.98698    0.37971    0.31754   1.00
C5       1.00262    0.41447    0.26600   1.00
H2       0.97268    0.42555    0.26014   1.00
H2       1.01811    0.41078    0.23770   1.00
C5       1.02445    0.44553    0.29002   1.00
C5       1.01105    0.26674    0.16037   1.00
C5       1.11070    0.22937    0.33991   1.00
H2       0.99088    0.24317    0.16992   1.00
H2       1.03712    0.25313    0.14640   1.00
H2       1.08300    0.23953    0.35368   1.00
H2       1.12895    0.25579    0.33398   1.00
H2       1.19030    0.22639    0.37938   1.00
H2       0.94247    0.25239    0.11344   1.00
H2       0.98763    0.24551    0.08647   1.00
C2       0.89605    0.25264    0.24953   1.00
C3       0.91597    0.22115    0.23196   1.00
O2       0.89674    0.19653    0.20657   1.00
C3       0.91826    0.28177    0.26858   1.00
H1       0.90385    0.30572    0.28318   1.00
C3a      0.95713    0.21998    0.23289   1.00
H1       0.97202    0.19688    0.21739   1.00
C3b      0.95922    0.28118    0.26838   1.00
C4       0.97900    0.25018    0.25038   1.00
O3       1.02167    0.29099    0.19190   1.00
C5       0.88720    0.16121    0.22546   1.00
H2       0.91391    0.14601    0.23630   1.00
C5       0.86674    0.13551    0.19546   1.00
H2       0.86726    0.16647    0.25061   1.00
H2       0.88932    0.12191    0.17646   1.00
H2       0.84907    0.15500    0.17637   1.00
C5       0.84082    0.10396    0.21420   1.00
H2       0.85824    0.08676    0.23547   1.00
C5       0.82453    0.07609    0.18296   1.00
H2       0.81507    0.11714    0.22931   1.00
C5       0.99017    0.29212    0.13039   1.00
H2       1.01215    0.31125    0.11599   1.00
H2       0.96952    0.31164    0.14619   1.00
C5       0.96800    0.26754    0.10002   1.00
C5       0.95225    0.29408    0.06738   1.00
H2       1.19286    0.17090    0.42018   1.00
C5       1.18912    0.21885    0.46270   1.00
H2       1.14323    0.17997    0.44027   1.00
C5       1.03337    0.48105    0.26400   1.00
H2       1.00551    0.45505    0.31565   1.00
H2       1.05293    0.43272    0.30144   1.00
C5       0.80497    0.04095    0.20297   1.00
H2       0.80211    0.09215    0.16437   1.00
H2       0.84937    0.06541    0.16359   1.00
H2       0.93602    0.31979    0.08086   1.00
H2       0.97761    0.30536    0.04906   1.00
C5       0.92417    0.27066    0.04128   1.00
H2       1.20116    0.24723    0.45025   1.00
H2       1.16571    0.22570    0.48530   1.00
H2       1.21374    0.20172    0.47708   1.00
H2       1.01820    0.47737    0.23463   1.00
H2       1.02229    0.50870    0.27880   1.00
H2       1.06621    0.48339    0.25930   1.00
H2       0.78889    0.05124    0.23020   1.00
H2       0.78336    0.02686    0.18199   1.00
H2       0.82819    0.01873    0.21154   1.00
H2       0.89307    0.27413    0.05254   1.00
H2       0.92598    0.28200    0.01007   1.00
H2       0.93266    0.23852    0.04191   1.00
C5       0.63285    -0.13218   0.20152   1.00
H2       0.65224    -0.14745   0.18054   1.00
H2       0.61582    -0.11090   0.18397   1.00
C5       0.60541    -0.16194   0.22100   1.00
C5       0.57045    -0.17123   0.19436   1.00
H2       0.59441    -0.15015   0.24919   1.00
O3       0.71214    0.02000    0.30985   1.00
C4       0.75038    -0.02100   0.24982   1.00
C3c      0.72123    -0.04243   0.23057   1.00
H1       0.69822    -0.02725   0.21524   1.00
C3d      0.78041    -0.04135   0.26914   1.00
C3       0.72092    -0.08354   0.23121   1.00
O2       0.69432    -0.10248   0.20784   1.00
C3       0.77978    -0.08227   0.27047   1.00
H1       0.80265    -0.09657   0.28681   1.00
C2       0.75028    -0.10439   0.25152   1.00
C5       0.73406    0.02121    0.34472   1.00
H2       0.73863    0.05162    0.35532   1.00
H2       0.76325    0.00734    0.34070   1.00
C5       0.71139    -0.00129   0.37568   1.00
H2       0.70587    -0.03137   0.36462   1.00
H2       0.68246    0.01302    0.37971   1.00
C5       0.73400    -0.00262   0.41447   1.00
H2       0.73986    0.02732    0.42555   1.00
H2       0.76230    -0.01811   0.41078   1.00
C5       0.70998    -0.02445   0.44553   1.00
C5       0.83963    -0.01105   0.26674   1.00
C5       0.66009    -0.11070   0.22937   1.00
H2       0.83008    0.00912    0.24317   1.00
H2       0.85360    -0.03712   0.25313   1.00
H2       0.64632    -0.08300   0.23953   1.00
H2       0.66602    -0.12895   0.25579   1.00
H2       0.62062    -0.19030   0.22639   1.00
H2       0.88656    0.05753    0.25239   1.00
H2       0.91353    0.01237    0.24551   1.00
C2       0.75047    0.10395    0.25264   1.00
C3       0.76804    0.08403    0.22115   1.00
O2       0.79343    0.10326    0.19653   1.00
C3       0.73142    0.08174    0.28177   1.00
H1       0.71682    0.09615    0.30572   1.00
C3a      0.76711    0.04287    0.21998   1.00
H1       0.78261    0.02798    0.19688   1.00
C3b      0.73162    0.04078    0.28118   1.00
C4       0.74962    0.02100    0.25018   1.00
O3       0.80810    -0.02167   0.29099   1.00
C5       0.77454    0.11280    0.16121   1.00
H2       0.76370    0.08609    0.14601   1.00
C5       0.80454    0.13326    0.13551   1.00
H2       0.74939    0.13274    0.16647   1.00
H2       0.82354    0.11068    0.12191   1.00
H2       0.82363    0.15093    0.15500   1.00
C5       0.78580    0.15918    0.10396   1.00
H2       0.76453    0.14176    0.08676   1.00
C5       0.81704    0.17547    0.07609   1.00
H2       0.77069    0.18493    0.11714   1.00
C5       0.86961    0.00983    0.29212   1.00
H2       0.88401    -0.01215   0.31125   1.00
H2       0.85381    0.03048    0.31164   1.00
C5       0.89998    0.03200    0.26754   1.00
C5       0.93262    0.04775    0.29408   1.00
H2       0.57982    -0.19286   0.17090   1.00
C5       0.53730    -0.18912   0.21885   1.00
H2       0.55973    -0.14323   0.17997   1.00
C5       0.73600    -0.03337   0.48105   1.00
H2       0.68435    -0.00551   0.45505   1.00
H2       0.69856    -0.05293   0.43272   1.00
C5       0.79703    0.19503    0.04095   1.00
H2       0.83563    0.19789    0.09215   1.00
H2       0.83641    0.15063    0.06541   1.00
H2       0.91914    0.06398    0.31979   1.00
H2       0.95094    0.02239    0.30536   1.00
C5       0.95872    0.07583    0.27066   1.00
H2       0.54975    -0.20116   0.24723   1.00
H2       0.51470    -0.16571   0.22570   1.00
H2       0.52292    -0.21374   0.20172   1.00
H2       0.76537    -0.01820   0.47737   1.00
H2       0.72120    -0.02229   0.50870   1.00
H2       0.74070    -0.06621   0.48339   1.00
H2       0.76980    0.21111    0.05124   1.00
H2       0.81801    0.21664    0.02686   1.00
H2       0.78846    0.17181    0.01873   1.00
H2       0.94746    0.10693    0.27413   1.00
H2       0.98993    0.07402    0.28200   1.00
H2       0.95809    0.06734    0.23852   1.00
C5       0.70152    0.13285    -0.13218   1.00
H2       0.68054    0.15224    -0.14745   1.00
H2       0.68397    0.11582    -0.11090   1.00
C5       0.72100    0.10541    -0.16194   1.00
C5       0.69436    0.07045    -0.17123   1.00
H2       0.74919    0.09441    -0.15015   1.00
O3       0.80985    0.21214    0.02000   1.00
C4       0.74982    0.25038    -0.02100   1.00
C3c      0.73057    0.22123    -0.04243   1.00
H1       0.71524    0.19822    -0.02725   1.00
C3d      0.76914    0.28041    -0.04135   1.00
C3       0.73121    0.22092    -0.08354   1.00
O2       0.70784    0.19432    -0.10248   1.00
C3       0.77047    0.27978    -0.08227   1.00
H1       0.78681    0.30265    -0.09657   1.00
C2       0.75152    0.25028    -0.10439   1.00
C5       0.84472    0.23406    0.02121   1.00
H2       0.85532    0.23863    0.05162   1.00
H2       0.84070    0.26325    0.00734   1.00
C5       0.87568    0.21139    -0.00129   1.00
H2       0.86462    0.20587    -0.03137   1.00
H2       0.87971    0.18246    0.01302   1.00
C5       0.91447    0.23400    -0.00262   1.00
H2       0.92555    0.23986    0.02732   1.00
H2       0.91078    0.26230    -0.01811   1.00
C5       0.94553    0.20998    -0.02445   1.00
C5       0.76674    0.33963    -0.01105   1.00
C5       0.72937    0.16009    -0.11070   1.00
H2       0.74317    0.33008    0.00912   1.00
H2       0.75313    0.35360    -0.03712   1.00
H2       0.73953    0.14632    -0.08300   1.00
H2       0.75579    0.16602    -0.12895   1.00
H2       0.72639    0.12062    -0.19030   1.00
H2       0.75239    0.38656    0.05753   1.00
H2       0.74551    0.41353    0.01237   1.00
C2       0.75264    0.25047    0.10395   1.00
C3       0.72115    0.26804    0.08403   1.00
O2       0.69653    0.29343    0.10326   1.00
C3       0.78177    0.23142    0.08174   1.00
H1       0.80572    0.21682    0.09615   1.00
C3a      0.71998    0.26711    0.04287   1.00
H1       0.69688    0.28261    0.02798   1.00
C3b      0.78118    0.23162    0.04078   1.00
C4       0.75018    0.24962    0.02100   1.00
O3       0.79099    0.30810    -0.02167   1.00
C5       0.66121    0.27454    0.11280   1.00
H2       0.64601    0.26370    0.08609   1.00
C5       0.63551    0.30454    0.13326   1.00
H2       0.66647    0.24939    0.13274   1.00
H2       0.62191    0.32354    0.11068   1.00
H2       0.65500    0.32363    0.15093   1.00
C5       0.60396    0.28580    0.15918   1.00
H2       0.58676    0.26453    0.14176   1.00
C5       0.57609    0.31704    0.17547   1.00
H2       0.61714    0.27069    0.18493   1.00
C5       0.79212    0.36961    0.00983   1.00
H2       0.81125    0.38401    -0.01215   1.00
H2       0.81164    0.35381    0.03048   1.00
C5       0.76754    0.39998    0.03200   1.00
C5       0.79408    0.43262    0.04775   1.00
H2       0.67090    0.07982    -0.19286   1.00
C5       0.71885    0.03730    -0.18912   1.00
H2       0.67997    0.05973    -0.14323   1.00
C5       0.98105    0.23600    -0.03337   1.00
H2       0.95505    0.18435    -0.00551   1.00
H2       0.93272    0.19856    -0.05293   1.00
C5       0.54095    0.29703    0.19503   1.00
H2       0.59215    0.33563    0.19789   1.00
H2       0.56541    0.33641    0.15063   1.00
H2       0.81979    0.41914    0.06398   1.00
H2       0.80536    0.45094    0.02239   1.00
C5       0.77066    0.45872    0.07583   1.00
H2       0.74723    0.04975    -0.20116   1.00
H2       0.72570    0.01470    -0.16571   1.00
H2       0.70172    0.02292    -0.21374   1.00
H2       0.97737    0.26537    -0.01820   1.00
H2       1.00870    0.22120    -0.02229   1.00
H2       0.98339    0.24070    -0.06621   1.00
H2       0.55124    0.26980    0.21111   1.00
H2       0.52686    0.31801    0.21664   1.00
H2       0.51873    0.28846    0.17181   1.00
H2       0.77413    0.44746    0.10693   1.00
H2       0.78200    0.48993    0.07402   1.00
H2       0.73852    0.45809    0.06734   1.00
C5       0.95152    1.11715    1.38218   1.00
H2       0.93054    1.09776    1.39745   1.00
H2       0.93397    1.13418    1.36090   1.00
C5       0.97100    1.14459    1.41194   1.00
C5       0.94436    1.17955    1.42123   1.00
H2       0.99919    1.15559    1.40015   1.00
O3       1.05985    1.03786    1.23000   1.00
C4       0.99982    0.99962    1.27100   1.00
C3c      0.98057    1.02877    1.29243   1.00
H1       0.96524    1.05178    1.27725   1.00
C3d      1.01914    0.96959    1.29135   1.00
C3       0.98121    1.02908    1.33354   1.00
O2       0.95784    1.05568    1.35248   1.00
C3       1.02047    0.97022    1.33227   1.00
H1       1.03681    0.94735    1.34657   1.00
C2       1.00152    0.99972    1.35439   1.00
C5       1.09472    1.01594    1.22879   1.00
H2       1.10532    1.01137    1.19838   1.00
H2       1.09070    0.98675    1.24266   1.00
C5       1.12568    1.03861    1.25129   1.00
H2       1.11462    1.04413    1.28137   1.00
H2       1.12971    1.06754    1.23698   1.00
C5       1.16447    1.01600    1.25262   1.00
H2       1.17555    1.01014    1.22268   1.00
H2       1.16078    0.98770    1.26811   1.00
C5       1.19553    1.04002    1.27445   1.00
C5       1.01674    0.91037    1.26105   1.00
C5       0.97937    1.08991    1.36070   1.00
H2       0.99317    0.91992    1.24088   1.00
H2       1.00313    0.89640    1.28712   1.00
H2       0.98953    1.10368    1.33300   1.00
H2       1.00579    1.08398    1.37895   1.00
H2       0.97639    1.12938    1.44030   1.00
H2       1.00239    0.86344    1.19247   1.00
H2       0.99551    0.83647    1.23763   1.00
C2       1.00264    0.99953    1.14605   1.00
C3       0.97115    0.98196    1.16597   1.00
O2       0.94653    0.95657    1.14674   1.00
C3       1.03177    1.01858    1.16826   1.00
H1       1.05572    1.03318    1.15385   1.00
C3a      0.96998    0.98289    1.20713   1.00
H1       0.94688    0.96739    1.22202   1.00
C3b      1.03118    1.01838    1.20922   1.00
C4       1.00018    1.00038    1.22900   1.00
O3       1.04099    0.94190    1.27167   1.00
C5       0.91121    0.97546    1.13720   1.00
H2       0.89601    0.98630    1.16391   1.00
C5       0.88551    0.94546    1.11674   1.00
H2       0.91647    1.00061    1.11726   1.00
H2       0.87191    0.92646    1.13932   1.00
H2       0.90500    0.92637    1.09907   1.00
C5       0.85396    0.96420    1.09082   1.00
H2       0.83676    0.98547    1.10824   1.00
C5       0.82609    0.93296    1.07453   1.00
H2       0.86714    0.97931    1.06507   1.00
C5       1.04212    0.88039    1.24017   1.00
H2       1.06125    0.86599    1.26215   1.00
H2       1.06164    0.89619    1.21952   1.00
C5       1.01754    0.85002    1.21800   1.00
C5       1.04408    0.81738    1.20225   1.00
H2       0.92090    1.17018    1.44286   1.00
C5       0.96885    1.21270    1.43912   1.00
H2       0.92997    1.19027    1.39323   1.00
C5       1.23105    1.01400    1.28337   1.00
H2       1.20505    1.06565    1.25551   1.00
H2       1.18272    1.05144    1.30293   1.00
C5       0.79095    0.95297    1.05497   1.00
H2       0.84215    0.91437    1.05211   1.00
H2       0.81541    0.91359    1.09937   1.00
H2       1.06979    0.83086    1.18602   1.00
H2       1.05536    0.79906    1.22761   1.00
C5       1.02066    0.79128    1.17417   1.00
H2       0.99723    1.20025    1.45116   1.00
H2       0.97570    1.23530    1.41571   1.00
H2       0.95172    1.22708    1.46374   1.00
H2       1.22737    0.98463    1.26820   1.00
H2       1.25870    1.02880    1.27229   1.00
H2       1.23339    1.00930    1.31621   1.00
H2       0.80124    0.98020    1.03889   1.00
H2       0.77686    0.93199    1.03336   1.00
H2       0.76873    0.96154    1.07819   1.00
H2       1.02413    0.80254    1.14307   1.00
H2       1.03200    0.76007    1.17598   1.00
H2       0.98852    0.79191    1.18266   1.00
C5       1.11715    1.38218    0.95152   1.00
H2       1.09776    1.39745    0.93054   1.00
H2       1.13418    1.36090    0.93397   1.00
C5       1.14459    1.41194    0.97100   1.00
C5       1.17955    1.42123    0.94436   1.00
H2       1.15559    1.40015    0.99919   1.00
O3       1.03786    1.23000    1.05985   1.00
C4       0.99962    1.27100    0.99982   1.00
C3c      1.02877    1.29243    0.98057   1.00
H1       1.05178    1.27725    0.96524   1.00
C3d      0.96959    1.29135    1.01914   1.00
C3       1.02908    1.33354    0.98121   1.00
O2       1.05568    1.35248    0.95784   1.00
C3       0.97022    1.33227    1.02047   1.00
H1       0.94735    1.34657    1.03681   1.00
C2       0.99972    1.35439    1.00152   1.00
C5       1.01594    1.22879    1.09472   1.00
H2       1.01137    1.19838    1.10532   1.00
H2       0.98675    1.24266    1.09070   1.00
C5       1.03861    1.25129    1.12568   1.00
H2       1.04413    1.28137    1.11462   1.00
H2       1.06754    1.23698    1.12971   1.00
C5       1.01600    1.25262    1.16447   1.00
H2       1.01014    1.22268    1.17555   1.00
H2       0.98770    1.26811    1.16078   1.00
C5       1.04002    1.27445    1.19553   1.00
C5       0.91037    1.26105    1.01674   1.00
C5       1.08991    1.36070    0.97937   1.00
H2       0.91992    1.24088    0.99317   1.00
H2       0.89640    1.28712    1.00313   1.00
H2       1.10368    1.33300    0.98953   1.00
H2       1.08398    1.37895    1.00579   1.00
H2       1.12938    1.44030    0.97639   1.00
H2       0.86344    1.19247    1.00239   1.00
H2       0.83647    1.23763    0.99551   1.00
C2       0.99953    1.14605    1.00264   1.00
C3       0.98196    1.16597    0.97115   1.00
O2       0.95657    1.14674    0.94653   1.00
C3       1.01858    1.16826    1.03177   1.00
H1       1.03318    1.15385    1.05572   1.00
C3a      0.98289    1.20713    0.96998   1.00
H1       0.96739    1.22202    0.94688   1.00
C3b      1.01838    1.20922    1.03118   1.00
C4       1.00038    1.22900    1.00018   1.00
O3       0.94190    1.27167    1.04099   1.00
C5       0.97546    1.13720    0.91121   1.00
H2       0.98630    1.16391    0.89601   1.00
C5       0.94546    1.11674    0.88551   1.00
H2       1.00061    1.11726    0.91647   1.00
H2       0.92646    1.13932    0.87191   1.00
H2       0.92637    1.09907    0.90500   1.00
C5       0.96420    1.09082    0.85396   1.00
H2       0.98547    1.10824    0.83676   1.00
C5       0.93296    1.07453    0.82609   1.00
H2       0.97931    1.06507    0.86714   1.00
C5       0.88039    1.24017    1.04212   1.00
H2       0.86599    1.26215    1.06125   1.00
H2       0.89619    1.21952    1.06164   1.00
C5       0.85002    1.21800    1.01754   1.00
C5       0.81738    1.20225    1.04408   1.00
H2       1.17018    1.44286    0.92090   1.00
C5       1.21270    1.43912    0.96885   1.00
H2       1.19027    1.39323    0.92997   1.00
C5       1.01400    1.28337    1.23105   1.00
H2       1.06565    1.25551    1.20505   1.00
H2       1.05144    1.30293    1.18272   1.00
C5       0.95297    1.05497    0.79095   1.00
H2       0.91437    1.05211    0.84215   1.00
H2       0.91359    1.09937    0.81541   1.00
H2       0.83086    1.18602    1.06979   1.00
H2       0.79906    1.22761    1.05536   1.00
C5       0.79128    1.17417    1.02066   1.00
H2       1.20025    1.45116    0.99723   1.00
H2       1.23530    1.41571    0.97570   1.00
H2       1.22708    1.46374    0.95172   1.00
H2       0.98463    1.26820    1.22737   1.00
H2       1.02880    1.27229    1.25870   1.00
H2       1.00930    1.31621    1.23339   1.00
H2       0.98020    1.03889    0.80124   1.00
H2       0.93199    1.03336    0.77686   1.00
H2       0.96154    1.07819    0.76873   1.00
H2       0.80254    1.14307    1.02413   1.00
H2       0.76007    1.17598    1.03200   1.00
H2       0.79191    1.18266    0.98852   1.00
C5       0.61782    0.95152    0.88285   1.00
H2       0.60255    0.93054    0.90224   1.00
H2       0.63910    0.93397    0.86582   1.00
C5       0.58806    0.97100    0.85541   1.00
C5       0.57877    0.94436    0.82045   1.00
H2       0.59985    0.99919    0.84441   1.00
O3       0.77000    1.05985    0.96214   1.00
C4       0.72900    0.99982    1.00038   1.00
C3c      0.70757    0.98057    0.97123   1.00
H1       0.72275    0.96524    0.94822   1.00
C3d      0.70865    1.01914    1.03041   1.00
C3       0.66646    0.98121    0.97092   1.00
O2       0.64752    0.95784    0.94432   1.00
C3       0.66773    1.02047    1.02978   1.00
H1       0.65343    1.03681    1.05265   1.00
C2       0.64561    1.00152    1.00028   1.00
C5       0.77121    1.09472    0.98406   1.00
H2       0.80162    1.10532    0.98863   1.00
H2       0.75734    1.09070    1.01325   1.00
C5       0.74871    1.12568    0.96139   1.00
H2       0.71863    1.11462    0.95587   1.00
H2       0.76302    1.12971    0.93246   1.00
C5       0.74738    1.16447    0.98400   1.00
H2       0.77732    1.17555    0.98986   1.00
H2       0.73189    1.16078    1.01230   1.00
C5       0.72555    1.19553    0.95998   1.00
C5       0.73895    1.01674    1.08963   1.00
C5       0.63930    0.97937    0.91009   1.00
H2       0.75912    0.99317    1.08008   1.00
H2       0.71288    1.00313    1.10360   1.00
H2       0.66700    0.98953    0.89632   1.00
H2       0.62105    1.00579    0.91602   1.00
H2       0.55970    0.97639    0.87062   1.00
H2       0.80753    1.00239    1.13656   1.00
H2       0.76237    0.99551    1.16353   1.00
C2       0.85395    1.00264    1.00047   1.00
C3       0.83403    0.97115    1.01804   1.00
O2       0.85326    0.94653    1.04343   1.00
C3       0.83174    1.03177    0.98142   1.00
H1       0.84615    1.05572    0.96682   1.00
C3a      0.79287    0.96998    1.01711   1.00
H1       0.77798    0.94688    1.03261   1.00
C3b      0.79078    1.03118    0.98162   1.00
C4       0.77100    1.00018    0.99962   1.00
O3       0.72833    1.04099    1.05810   1.00
C5       0.86280    0.91121    1.02454   1.00
H2       0.83609    0.89601    1.01370   1.00
C5       0.88326    0.88551    1.05454   1.00
H2       0.88274    0.91647    0.99939   1.00
H2       0.86068    0.87191    1.07354   1.00
H2       0.90093    0.90500    1.07363   1.00
C5       0.90918    0.85396    1.03580   1.00
H2       0.89176    0.83676    1.01453   1.00
C5       0.92547    0.82609    1.06704   1.00
H2       0.93493    0.86714    1.02069   1.00
C5       0.75983    1.04212    1.11961   1.00
H2       0.73785    1.06125    1.13401   1.00
H2       0.78048    1.06164    1.10381   1.00
C5       0.78200    1.01754    1.14998   1.00
C5       0.79775    1.04408    1.18262   1.00
H2       0.55714    0.92090    0.82982   1.00
C5       0.56088    0.96885    0.78730   1.00
H2       0.60677    0.92997    0.80973   1.00
C5       0.71663    1.23105    0.98600   1.00
H2       0.74449    1.20505    0.93435   1.00
H2       0.69707    1.18272    0.94856   1.00
C5       0.94503    0.79095    1.04703   1.00
H2       0.94789    0.84215    1.08563   1.00
H2       0.90063    0.81541    1.08641   1.00
H2       0.81398    1.06979    1.16914   1.00
H2       0.77239    1.05536    1.20094   1.00
C5       0.82583    1.02066    1.20872   1.00
H2       0.54884    0.99723    0.79975   1.00
H2       0.58429    0.97570    0.76470   1.00
H2       0.53626    0.95172    0.77292   1.00
H2       0.73180    1.22737    1.01537   1.00
H2       0.72771    1.25870    0.97120   1.00
H2       0.68379    1.23339    0.99070   1.00
H2       0.96111    0.80124    1.01980   1.00
H2       0.96664    0.77686    1.06801   1.00
H2       0.92181    0.76873    1.03846   1.00
H2       0.85693    1.02413    1.19746   1.00
H2       0.82402    1.03200    1.23993   1.00
H2       0.81734    0.98852    1.20809   1.00
C5       1.38218    0.95152    1.11715   1.00
H2       1.39745    0.93054    1.09776   1.00
H2       1.36090    0.93397    1.13418   1.00
C5       1.41194    0.97100    1.14459   1.00
C5       1.42123    0.94436    1.17955   1.00
H2       1.40015    0.99919    1.15559   1.00
O3       1.23000    1.05985    1.03786   1.00
C4       1.27100    0.99982    0.99962   1.00
C3c      1.29243    0.98057    1.02877   1.00
H1       1.27725    0.96524    1.05178   1.00
C3d      1.29135    1.01914    0.96959   1.00
C3       1.33354    0.98121    1.02908   1.00
O2       1.35248    0.95784    1.05568   1.00
C3       1.33227    1.02047    0.97022   1.00
H1       1.34657    1.03681    0.94735   1.00
C2       1.35439    1.00152    0.99972   1.00
C5       1.22879    1.09472    1.01594   1.00
H2       1.19838    1.10532    1.01137   1.00
H2       1.24266    1.09070    0.98675   1.00
C5       1.25129    1.12568    1.03861   1.00
H2       1.28137    1.11462    1.04413   1.00
H2       1.23698    1.12971    1.06754   1.00
C5       1.25262    1.16447    1.01600   1.00
H2       1.22268    1.17555    1.01014   1.00
H2       1.26811    1.16078    0.98770   1.00
C5       1.27445    1.19553    1.04002   1.00
C5       1.26105    1.01674    0.91037   1.00
C5       1.36070    0.97937    1.08991   1.00
H2       1.24088    0.99317    0.91992   1.00
H2       1.28712    1.00313    0.89640   1.00
H2       1.33300    0.98953    1.10368   1.00
H2       1.37895    1.00579    1.08398   1.00
H2       1.44030    0.97639    1.12938   1.00
H2       1.19247    1.00239    0.86344   1.00
H2       1.23763    0.99551    0.83647   1.00
C2       1.14605    1.00264    0.99953   1.00
C3       1.16597    0.97115    0.98196   1.00
O2       1.14674    0.94653    0.95657   1.00
C3       1.16826    1.03177    1.01858   1.00
H1       1.15385    1.05572    1.03318   1.00
C3a      1.20713    0.96998    0.98289   1.00
H1       1.22202    0.94688    0.96739   1.00
C3b      1.20922    1.03118    1.01838   1.00
C4       1.22900    1.00018    1.00038   1.00
O3       1.27167    1.04099    0.94190   1.00
C5       1.13720    0.91121    0.97546   1.00
H2       1.16391    0.89601    0.98630   1.00
C5       1.11674    0.88551    0.94546   1.00
H2       1.11726    0.91647    1.00061   1.00
H2       1.13932    0.87191    0.92646   1.00
H2       1.09907    0.90500    0.92637   1.00
C5       1.09082    0.85396    0.96420   1.00
H2       1.10824    0.83676    0.98547   1.00
C5       1.07453    0.82609    0.93296   1.00
H2       1.06507    0.86714    0.97931   1.00
C5       1.24017    1.04212    0.88039   1.00
H2       1.26215    1.06125    0.86599   1.00
H2       1.21952    1.06164    0.89619   1.00
C5       1.21800    1.01754    0.85002   1.00
C5       1.20225    1.04408    0.81738   1.00
H2       1.44286    0.92090    1.17018   1.00
C5       1.43912    0.96885    1.21270   1.00
H2       1.39323    0.92997    1.19027   1.00
C5       1.28337    1.23105    1.01400   1.00
H2       1.25551    1.20505    1.06565   1.00
H2       1.30293    1.18272    1.05144   1.00
C5       1.05497    0.79095    0.95297   1.00
H2       1.05211    0.84215    0.91437   1.00
H2       1.09937    0.81541    0.91359   1.00
H2       1.18602    1.06979    0.83086   1.00
H2       1.22761    1.05536    0.79906   1.00
C5       1.17417    1.02066    0.79128   1.00
H2       1.45116    0.99723    1.20025   1.00
H2       1.41571    0.97570    1.23530   1.00
H2       1.46374    0.95172    1.22708   1.00
H2       1.26820    1.22737    0.98463   1.00
H2       1.27229    1.25870    1.02880   1.00
H2       1.31621    1.23339    1.00930   1.00
H2       1.03889    0.80124    0.98020   1.00
H2       1.03336    0.77686    0.93199   1.00
H2       1.07819    0.76873    0.96154   1.00
H2       1.14307    1.02413    0.80254   1.00
H2       1.17598    1.03200    0.76007   1.00
H2       1.18266    0.98852    0.79191   1.00
C5       0.88285    0.61782    0.95152   1.00
H2       0.90224    0.60255    0.93054   1.00
H2       0.86582    0.63910    0.93397   1.00
C5       0.85541    0.58806    0.97100   1.00
C5       0.82045    0.57877    0.94436   1.00
H2       0.84441    0.59985    0.99919   1.00
O3       0.96214    0.77000    1.05985   1.00
C4       1.00038    0.72900    0.99982   1.00
C3c      0.97123    0.70757    0.98057   1.00
H1       0.94822    0.72275    0.96524   1.00
C3d      1.03041    0.70865    1.01914   1.00
C3       0.97092    0.66646    0.98121   1.00
O2       0.94432    0.64752    0.95784   1.00
C3       1.02978    0.66773    1.02047   1.00
H1       1.05265    0.65343    1.03681   1.00
C2       1.00028    0.64561    1.00152   1.00
C5       0.98406    0.77121    1.09472   1.00
H2       0.98863    0.80162    1.10532   1.00
H2       1.01325    0.75734    1.09070   1.00
C5       0.96139    0.74871    1.12568   1.00
H2       0.95587    0.71863    1.11462   1.00
H2       0.93246    0.76302    1.12971   1.00
C5       0.98400    0.74738    1.16447   1.00
H2       0.98986    0.77732    1.17555   1.00
H2       1.01230    0.73189    1.16078   1.00
C5       0.95998    0.72555    1.19553   1.00
C5       1.08963    0.73895    1.01674   1.00
C5       0.91009    0.63930    0.97937   1.00
H2       1.08008    0.75912    0.99317   1.00
H2       1.10360    0.71288    1.00313   1.00
H2       0.89632    0.66700    0.98953   1.00
H2       0.91602    0.62105    1.00579   1.00
H2       0.87062    0.55970    0.97639   1.00
H2       1.13656    0.80753    1.00239   1.00
H2       1.16353    0.76237    0.99551   1.00
C2       1.00047    0.85395    1.00264   1.00
C3       1.01804    0.83403    0.97115   1.00
O2       1.04343    0.85326    0.94653   1.00
C3       0.98142    0.83174    1.03177   1.00
H1       0.96682    0.84615    1.05572   1.00
C3a      1.01711    0.79287    0.96998   1.00
H1       1.03261    0.77798    0.94688   1.00
C3b      0.98162    0.79078    1.03118   1.00
C4       0.99962    0.77100    1.00018   1.00
O3       1.05810    0.72833    1.04099   1.00
C5       1.02454    0.86280    0.91121   1.00
H2       1.01370    0.83609    0.89601   1.00
C5       1.05454    0.88326    0.88551   1.00
H2       0.99939    0.88274    0.91647   1.00
H2       1.07354    0.86068    0.87191   1.00
H2       1.07363    0.90093    0.90500   1.00
C5       1.03580    0.90918    0.85396   1.00
H2       1.01453    0.89176    0.83676   1.00
C5       1.06704    0.92547    0.82609   1.00
H2       1.02069    0.93493    0.86714   1.00
C5       1.11961    0.75983    1.04212   1.00
H2       1.13401    0.73785    1.06125   1.00
H2       1.10381    0.78048    1.06164   1.00
C5       1.14998    0.78200    1.01754   1.00
C5       1.18262    0.79775    1.04408   1.00
H2       0.82982    0.55714    0.92090   1.00
C5       0.78730    0.56088    0.96885   1.00
H2       0.80973    0.60677    0.92997   1.00
C5       0.98600    0.71663    1.23105   1.00
H2       0.93435    0.74449    1.20505   1.00
H2       0.94856    0.69707    1.18272   1.00
C5       1.04703    0.94503    0.79095   1.00
H2       1.08563    0.94789    0.84215   1.00
H2       1.08641    0.90063    0.81541   1.00
H2       1.16914    0.81398    1.06979   1.00
H2       1.20094    0.77239    1.05536   1.00
C5       1.20872    0.82583    1.02066   1.00
H2       0.79975    0.54884    0.99723   1.00
H2       0.76470    0.58429    0.97570   1.00
H2       0.77292    0.53626    0.95172   1.00
H2       1.01537    0.73180    1.22737   1.00
H2       0.97120    0.72771    1.25870   1.00
H2       0.99070    0.68379    1.23339   1.00
H2       1.01980    0.96111    0.80124   1.00
H2       1.06801    0.96664    0.77686   1.00
H2       1.03846    0.92181    0.76873   1.00
H2       1.19746    0.85693    1.02413   1.00
H2       1.23993    0.82402    1.03200   1.00
H2       1.20809    0.81734    0.98852   1.00
C5       0.95152    0.88285    0.61782   1.00
H2       0.93054    0.90224    0.60255   1.00
H2       0.93397    0.86582    0.63910   1.00
C5       0.97100    0.85541    0.58806   1.00
C5       0.94436    0.82045    0.57877   1.00
H2       0.99919    0.84441    0.59985   1.00
O3       1.05985    0.96214    0.77000   1.00
C4       0.99982    1.00038    0.72900   1.00
C3c      0.98057    0.97123    0.70757   1.00
H1       0.96524    0.94822    0.72275   1.00
C3d      1.01914    1.03041    0.70865   1.00
C3       0.98121    0.97092    0.66646   1.00
O2       0.95784    0.94432    0.64752   1.00
C3       1.02047    1.02978    0.66773   1.00
H1       1.03681    1.05265    0.65343   1.00
C2       1.00152    1.00028    0.64561   1.00
C5       1.09472    0.98406    0.77121   1.00
H2       1.10532    0.98863    0.80162   1.00
H2       1.09070    1.01325    0.75734   1.00
C5       1.12568    0.96139    0.74871   1.00
H2       1.11462    0.95587    0.71863   1.00
H2       1.12971    0.93246    0.76302   1.00
C5       1.16447    0.98400    0.74738   1.00
H2       1.17555    0.98986    0.77732   1.00
H2       1.16078    1.01230    0.73189   1.00
C5       1.19553    0.95998    0.72555   1.00
C5       1.01674    1.08963    0.73895   1.00
C5       0.97937    0.91009    0.63930   1.00
H2       0.99317    1.08008    0.75912   1.00
H2       1.00313    1.10360    0.71288   1.00
H2       0.98953    0.89632    0.66700   1.00
H2       1.00579    0.91602    0.62105   1.00
H2       0.97639    0.87062    0.55970   1.00
H2       1.00239    1.13656    0.80753   1.00
H2       0.99551    1.16353    0.76237   1.00
C2       1.00264    1.00047    0.85395   1.00
C3       0.97115    1.01804    0.83403   1.00
O2       0.94653    1.04343    0.85326   1.00
C3       1.03177    0.98142    0.83174   1.00
H1       1.05572    0.96682    0.84615   1.00
C3a      0.96998    1.01711    0.79287   1.00
H1       0.94688    1.03261    0.77798   1.00
C3b      1.03118    0.98162    0.79078   1.00
C4       1.00018    0.99962    0.77100   1.00
O3       1.04099    1.05810    0.72833   1.00
C5       0.91121    1.02454    0.86280   1.00
H2       0.89601    1.01370    0.83609   1.00
C5       0.88551    1.05454    0.88326   1.00
H2       0.91647    0.99939    0.88274   1.00
H2       0.87191    1.07354    0.86068   1.00
H2       0.90500    1.07363    0.90093   1.00
C5       0.85396    1.03580    0.90918   1.00
H2       0.83676    1.01453    0.89176   1.00
C5       0.82609    1.06704    0.92547   1.00
H2       0.86714    1.02069    0.93493   1.00
C5       1.04212    1.11961    0.75983   1.00
H2       1.06125    1.13401    0.73785   1.00
H2       1.06164    1.10381    0.78048   1.00
C5       1.01754    1.14998    0.78200   1.00
C5       1.04408    1.18262    0.79775   1.00
H2       0.92090    0.82982    0.55714   1.00
C5       0.96885    0.78730    0.56088   1.00
H2       0.92997    0.80973    0.60677   1.00
C5       1.23105    0.98600    0.71663   1.00
H2       1.20505    0.93435    0.74449   1.00
H2       1.18272    0.94856    0.69707   1.00
C5       0.79095    1.04703    0.94503   1.00
H2       0.84215    1.08563    0.94789   1.00
H2       0.81541    1.08641    0.90063   1.00
H2       1.06979    1.16914    0.81398   1.00
H2       1.05536    1.20094    0.77239   1.00
C5       1.02066    1.20872    0.82583   1.00
H2       0.99723    0.79975    0.54884   1.00
H2       0.97570    0.76470    0.58429   1.00
H2       0.95172    0.77292    0.53626   1.00
H2       1.22737    1.01537    0.73180   1.00
H2       1.25870    0.97120    0.72771   1.00
H2       1.23339    0.99070    0.68379   1.00
H2       0.80124    1.01980    0.96111   1.00
H2       0.77686    1.06801    0.96664   1.00
H2       0.76873    1.03846    0.92181   1.00
H2       1.02413    1.19746    0.85693   1.00
H2       1.03200    1.23993    0.82402   1.00
H2       0.98852    1.20809    0.81734   1.00
C5       0.45152    0.61715    1.38218   1.00
H2       0.43054    0.59776    1.39745   1.00
H2       0.43397    0.63418    1.36090   1.00
C5       0.47100    0.64459    1.41194   1.00
C5       0.44436    0.67955    1.42123   1.00
H2       0.49919    0.65559    1.40015   1.00
O3       0.55985    0.53786    1.23000   1.00
C4       0.49982    0.49962    1.27100   1.00
C3c      0.48057    0.52877    1.29243   1.00
H1       0.46524    0.55178    1.27725   1.00
C3d      0.51914    0.46959    1.29135   1.00
C3       0.48121    0.52908    1.33354   1.00
O2       0.45784    0.55568    1.35248   1.00
C3       0.52047    0.47022    1.33227   1.00
H1       0.53681    0.44735    1.34657   1.00
C2       0.50152    0.49972    1.35439   1.00
C5       0.59472    0.51594    1.22879   1.00
H2       0.60532    0.51137    1.19838   1.00
H2       0.59070    0.48675    1.24266   1.00
C5       0.62568    0.53861    1.25129   1.00
H2       0.61462    0.54413    1.28137   1.00
H2       0.62971    0.56754    1.23698   1.00
C5       0.66447    0.51600    1.25262   1.00
H2       0.67555    0.51014    1.22268   1.00
H2       0.66078    0.48770    1.26811   1.00
C5       0.69553    0.54002    1.27445   1.00
C5       0.51674    0.41037    1.26105   1.00
C5       0.47937    0.58991    1.36070   1.00
H2       0.49317    0.41992    1.24088   1.00
H2       0.50313    0.39640    1.28712   1.00
H2       0.48953    0.60368    1.33300   1.00
H2       0.50579    0.58398    1.37895   1.00
H2       0.47639    0.62938    1.44030   1.00
H2       0.50239    0.36344    1.19247   1.00
H2       0.49551    0.33647    1.23763   1.00
C2       0.50264    0.49953    1.14605   1.00
C3       0.47115    0.48196    1.16597   1.00
O2       0.44653    0.45657    1.14674   1.00
C3       0.53177    0.51858    1.16826   1.00
H1       0.55572    0.53318    1.15385   1.00
C3a      0.46998    0.48289    1.20713   1.00
H1       0.44688    0.46739    1.22202   1.00
C3b      0.53118    0.51838    1.20922   1.00
C4       0.50018    0.50038    1.22900   1.00
O3       0.54099    0.44190    1.27167   1.00
C5       0.41121    0.47546    1.13720   1.00
H2       0.39601    0.48630    1.16391   1.00
C5       0.38551    0.44546    1.11674   1.00
H2       0.41647    0.50061    1.11726   1.00
H2       0.37191    0.42646    1.13932   1.00
H2       0.40500    0.42637    1.09907   1.00
C5       0.35396    0.46420    1.09082   1.00
H2       0.33676    0.48547    1.10824   1.00
C5       0.32609    0.43296    1.07453   1.00
H2       0.36714    0.47931    1.06507   1.00
C5       0.54212    0.38039    1.24017   1.00
H2       0.56125    0.36599    1.26215   1.00
H2       0.56164    0.39619    1.21952   1.00
C5       0.51754    0.35002    1.21800   1.00
C5       0.54408    0.31738    1.20225   1.00
H2       0.42090    0.67018    1.44286   1.00
C5       0.46885    0.71270    1.43912   1.00
H2       0.42997    0.69027    1.39323   1.00
C5       0.73105    0.51400    1.28337   1.00
H2       0.70505    0.56565    1.25551   1.00
H2       0.68272    0.55144    1.30293   1.00
C5       0.29095    0.45297    1.05497   1.00
H2       0.34215    0.41437    1.05211   1.00
H2       0.31541    0.41359    1.09937   1.00
H2       0.56979    0.33086    1.18602   1.00
H2       0.55536    0.29906    1.22761   1.00
C5       0.52066    0.29128    1.17417   1.00
H2       0.49723    0.70025    1.45116   1.00
H2       0.47570    0.73530    1.41571   1.00
H2       0.45172    0.72708    1.46374   1.00
H2       0.72737    0.48463    1.26820   1.00
H2       0.75870    0.52880    1.27229   1.00
H2       0.73339    0.50930    1.31621   1.00
H2       0.30124    0.48020    1.03889   1.00
H2       0.27686    0.43199    1.03336   1.00
H2       0.26873    0.46154    1.07819   1.00
H2       0.52413    0.30254    1.14307   1.00
H2       0.53200    0.26007    1.17598   1.00
H2       0.48852    0.29191    1.18266   1.00
C5       0.61715    0.88218    0.95152   1.00
H2       0.59776    0.89745    0.93054   1.00
H2       0.63418    0.86090    0.93397   1.00
C5       0.64459    0.91194    0.97100   1.00
C5       0.67955    0.92123    0.94436   1.00
H2       0.65559    0.90015    0.99919   1.00
O3       0.53786    0.73000    1.05985   1.00
C4       0.49962    0.77100    0.99982   1.00
C3c      0.52877    0.79243    0.98057   1.00
H1       0.55178    0.77725    0.96524   1.00
C3d      0.46959    0.79135    1.01914   1.00
C3       0.52908    0.83354    0.98121   1.00
O2       0.55568    0.85248    0.95784   1.00
C3       0.47022    0.83227    1.02047   1.00
H1       0.44735    0.84657    1.03681   1.00
C2       0.49972    0.85439    1.00152   1.00
C5       0.51594    0.72879    1.09472   1.00
H2       0.51137    0.69838    1.10532   1.00
H2       0.48675    0.74266    1.09070   1.00
C5       0.53861    0.75129    1.12568   1.00
H2       0.54413    0.78137    1.11462   1.00
H2       0.56754    0.73698    1.12971   1.00
C5       0.51600    0.75262    1.16447   1.00
H2       0.51014    0.72268    1.17555   1.00
H2       0.48770    0.76811    1.16078   1.00
C5       0.54002    0.77445    1.19553   1.00
C5       0.41037    0.76105    1.01674   1.00
C5       0.58991    0.86070    0.97937   1.00
H2       0.41992    0.74088    0.99317   1.00
H2       0.39640    0.78712    1.00313   1.00
H2       0.60368    0.83300    0.98953   1.00
H2       0.58398    0.87895    1.00579   1.00
H2       0.62938    0.94030    0.97639   1.00
H2       0.36344    0.69247    1.00239   1.00
H2       0.33647    0.73763    0.99551   1.00
C2       0.49953    0.64605    1.00264   1.00
C3       0.48196    0.66597    0.97115   1.00
O2       0.45657    0.64674    0.94653   1.00
C3       0.51858    0.66826    1.03177   1.00
H1       0.53318    0.65385    1.05572   1.00
C3a      0.48289    0.70713    0.96998   1.00
H1       0.46739    0.72202    0.94688   1.00
C3b      0.51838    0.70922    1.03118   1.00
C4       0.50038    0.72900    1.00018   1.00
O3       0.44190    0.77167    1.04099   1.00
C5       0.47546    0.63720    0.91121   1.00
H2       0.48630    0.66391    0.89601   1.00
C5       0.44546    0.61674    0.88551   1.00
H2       0.50061    0.61726    0.91647   1.00
H2       0.42646    0.63932    0.87191   1.00
H2       0.42637    0.59907    0.90500   1.00
C5       0.46420    0.59082    0.85396   1.00
H2       0.48547    0.60824    0.83676   1.00
C5       0.43296    0.57453    0.82609   1.00
H2       0.47931    0.56507    0.86714   1.00
C5       0.38039    0.74017    1.04212   1.00
H2       0.36599    0.76215    1.06125   1.00
H2       0.39619    0.71952    1.06164   1.00
C5       0.35002    0.71800    1.01754   1.00
C5       0.31738    0.70225    1.04408   1.00
H2       0.67018    0.94286    0.92090   1.00
C5       0.71270    0.93912    0.96885   1.00
H2       0.69027    0.89323    0.92997   1.00
C5       0.51400    0.78337    1.23105   1.00
H2       0.56565    0.75551    1.20505   1.00
H2       0.55144    0.80293    1.18272   1.00
C5       0.45297    0.55497    0.79095   1.00
H2       0.41437    0.55211    0.84215   1.00
H2       0.41359    0.59937    0.81541   1.00
H2       0.33086    0.68602    1.06979   1.00
H2       0.29906    0.72761    1.05536   1.00
C5       0.29128    0.67417    1.02066   1.00
H2       0.70025    0.95116    0.99723   1.00
H2       0.73530    0.91571    0.97570   1.00
H2       0.72708    0.96374    0.95172   1.00
H2       0.48463    0.76820    1.22737   1.00
H2       0.52880    0.77229    1.25870   1.00
H2       0.50930    0.81621    1.23339   1.00
H2       0.48020    0.53889    0.80124   1.00
H2       0.43199    0.53336    0.77686   1.00
H2       0.46154    0.57819    0.76873   1.00
H2       0.30254    0.64307    1.02413   1.00
H2       0.26007    0.67598    1.03200   1.00
H2       0.29191    0.68266    0.98852   1.00
C5       0.11782    0.45152    0.88285   1.00
H2       0.10255    0.43054    0.90224   1.00
H2       0.13910    0.43397    0.86582   1.00
C5       0.08806    0.47100    0.85541   1.00
C5       0.07877    0.44436    0.82045   1.00
H2       0.09985    0.49919    0.84441   1.00
O3       0.27000    0.55985    0.96214   1.00
C4       0.22900    0.49982    1.00038   1.00
C3c      0.20757    0.48057    0.97123   1.00
H1       0.22275    0.46524    0.94822   1.00
C3d      0.20865    0.51914    1.03041   1.00
C3       0.16646    0.48121    0.97092   1.00
O2       0.14752    0.45784    0.94432   1.00
C3       0.16773    0.52047    1.02978   1.00
H1       0.15343    0.53681    1.05265   1.00
C2       0.14561    0.50152    1.00028   1.00
C5       0.27121    0.59472    0.98406   1.00
H2       0.30162    0.60532    0.98863   1.00
H2       0.25734    0.59070    1.01325   1.00
C5       0.24871    0.62568    0.96139   1.00
H2       0.21863    0.61462    0.95587   1.00
H2       0.26302    0.62971    0.93246   1.00
C5       0.24738    0.66447    0.98400   1.00
H2       0.27732    0.67555    0.98986   1.00
H2       0.23189    0.66078    1.01230   1.00
C5       0.22555    0.69553    0.95998   1.00
C5       0.23895    0.51674    1.08963   1.00
C5       0.13930    0.47937    0.91009   1.00
H2       0.25912    0.49317    1.08008   1.00
H2       0.21288    0.50313    1.10360   1.00
H2       0.16700    0.48953    0.89632   1.00
H2       0.12105    0.50579    0.91602   1.00
H2       0.05970    0.47639    0.87062   1.00
H2       0.30753    0.50239    1.13656   1.00
H2       0.26237    0.49551    1.16353   1.00
C2       0.35395    0.50264    1.00047   1.00
C3       0.33403    0.47115    1.01804   1.00
O2       0.35326    0.44653    1.04343   1.00
C3       0.33174    0.53177    0.98142   1.00
H1       0.34615    0.55572    0.96682   1.00
C3a      0.29287    0.46998    1.01711   1.00
H1       0.27798    0.44688    1.03261   1.00
C3b      0.29078    0.53118    0.98162   1.00
C4       0.27100    0.50018    0.99962   1.00
O3       0.22833    0.54099    1.05810   1.00
C5       0.36280    0.41121    1.02454   1.00
H2       0.33609    0.39601    1.01370   1.00
C5       0.38326    0.38551    1.05454   1.00
H2       0.38274    0.41647    0.99939   1.00
H2       0.36068    0.37191    1.07354   1.00
H2       0.40093    0.40500    1.07363   1.00
C5       0.40918    0.35396    1.03580   1.00
H2       0.39176    0.33676    1.01453   1.00
C5       0.42547    0.32609    1.06704   1.00
H2       0.43493    0.36714    1.02069   1.00
C5       0.25983    0.54212    1.11961   1.00
H2       0.23785    0.56125    1.13401   1.00
H2       0.28048    0.56164    1.10381   1.00
C5       0.28200    0.51754    1.14998   1.00
C5       0.29775    0.54408    1.18262   1.00
H2       0.05714    0.42090    0.82982   1.00
C5       0.06088    0.46885    0.78730   1.00
H2       0.10677    0.42997    0.80973   1.00
C5       0.21663    0.73105    0.98600   1.00
H2       0.24449    0.70505    0.93435   1.00
H2       0.19707    0.68272    0.94856   1.00
C5       0.44503    0.29095    1.04703   1.00
H2       0.44789    0.34215    1.08563   1.00
H2       0.40063    0.31541    1.08641   1.00
H2       0.31398    0.56979    1.16914   1.00
H2       0.27239    0.55536    1.20094   1.00
C5       0.32583    0.52066    1.20872   1.00
H2       0.04884    0.49723    0.79975   1.00
H2       0.08429    0.47570    0.76470   1.00
H2       0.03626    0.45172    0.77292   1.00
H2       0.23180    0.72737    1.01537   1.00
H2       0.22771    0.75870    0.97120   1.00
H2       0.18379    0.73339    0.99070   1.00
H2       0.46111    0.30124    1.01980   1.00
H2       0.46664    0.27686    1.06801   1.00
H2       0.42181    0.26873    1.03846   1.00
H2       0.35693    0.52413    1.19746   1.00
H2       0.32402    0.53200    1.23993   1.00
H2       0.31734    0.48852    1.20809   1.00
C5       0.88218    0.45152    1.11715   1.00
H2       0.89745    0.43054    1.09776   1.00
H2       0.86090    0.43397    1.13418   1.00
C5       0.91194    0.47100    1.14459   1.00
C5       0.92123    0.44436    1.17955   1.00
H2       0.90015    0.49919    1.15559   1.00
O3       0.73000    0.55985    1.03786   1.00
C4       0.77100    0.49982    0.99962   1.00
C3c      0.79243    0.48057    1.02877   1.00
H1       0.77725    0.46524    1.05178   1.00
C3d      0.79135    0.51914    0.96959   1.00
C3       0.83354    0.48121    1.02908   1.00
O2       0.85248    0.45784    1.05568   1.00
C3       0.83227    0.52047    0.97022   1.00
H1       0.84657    0.53681    0.94735   1.00
C2       0.85439    0.50152    0.99972   1.00
C5       0.72879    0.59472    1.01594   1.00
H2       0.69838    0.60532    1.01137   1.00
H2       0.74266    0.59070    0.98675   1.00
C5       0.75129    0.62568    1.03861   1.00
H2       0.78137    0.61462    1.04413   1.00
H2       0.73698    0.62971    1.06754   1.00
C5       0.75262    0.66447    1.01600   1.00
H2       0.72268    0.67555    1.01014   1.00
H2       0.76811    0.66078    0.98770   1.00
C5       0.77445    0.69553    1.04002   1.00
C5       0.76105    0.51674    0.91037   1.00
C5       0.86070    0.47937    1.08991   1.00
H2       0.74088    0.49317    0.91992   1.00
H2       0.78712    0.50313    0.89640   1.00
H2       0.83300    0.48953    1.10368   1.00
H2       0.87895    0.50579    1.08398   1.00
H2       0.94030    0.47639    1.12938   1.00
H2       0.69247    0.50239    0.86344   1.00
H2       0.73763    0.49551    0.83647   1.00
C2       0.64605    0.50264    0.99953   1.00
C3       0.66597    0.47115    0.98196   1.00
O2       0.64674    0.44653    0.95657   1.00
C3       0.66826    0.53177    1.01858   1.00
H1       0.65385    0.55572    1.03318   1.00
C3a      0.70713    0.46998    0.98289   1.00
H1       0.72202    0.44688    0.96739   1.00
C3b      0.70922    0.53118    1.01838   1.00
C4       0.72900    0.50018    1.00038   1.00
O3       0.77167    0.54099    0.94190   1.00
C5       0.63720    0.41121    0.97546   1.00
H2       0.66391    0.39601    0.98630   1.00
C5       0.61674    0.38551    0.94546   1.00
H2       0.61726    0.41647    1.00061   1.00
H2       0.63932    0.37191    0.92646   1.00
H2       0.59907    0.40500    0.92637   1.00
C5       0.59082    0.35396    0.96420   1.00
H2       0.60824    0.33676    0.98547   1.00
C5       0.57453    0.32609    0.93296   1.00
H2       0.56507    0.36714    0.97931   1.00
C5       0.74017    0.54212    0.88039   1.00
H2       0.76215    0.56125    0.86599   1.00
H2       0.71952    0.56164    0.89619   1.00
C5       0.71800    0.51754    0.85002   1.00
C5       0.70225    0.54408    0.81738   1.00
H2       0.94286    0.42090    1.17018   1.00
C5       0.93912    0.46885    1.21270   1.00
H2       0.89323    0.42997    1.19027   1.00
C5       0.78337    0.73105    1.01400   1.00
H2       0.75551    0.70505    1.06565   1.00
H2       0.80293    0.68272    1.05144   1.00
C5       0.55497    0.29095    0.95297   1.00
H2       0.55211    0.34215    0.91437   1.00
H2       0.59937    0.31541    0.91359   1.00
H2       0.68602    0.56979    0.83086   1.00
H2       0.72761    0.55536    0.79906   1.00
C5       0.67417    0.52066    0.79128   1.00
H2       0.95116    0.49723    1.20025   1.00
H2       0.91571    0.47570    1.23530   1.00
H2       0.96374    0.45172    1.22708   1.00
H2       0.76820    0.72737    0.98463   1.00
H2       0.77229    0.75870    1.02880   1.00
H2       0.81621    0.73339    1.00930   1.00
H2       0.53889    0.30124    0.98020   1.00
H2       0.53336    0.27686    0.93199   1.00
H2       0.57819    0.26873    0.96154   1.00
H2       0.64307    0.52413    0.80254   1.00
H2       0.67598    0.53200    0.76007   1.00
H2       0.68266    0.48852    0.79191   1.00
C5       0.38285    0.11782    0.95152   1.00
H2       0.40224    0.10255    0.93054   1.00
H2       0.36582    0.13910    0.93397   1.00
C5       0.35541    0.08806    0.97100   1.00
C5       0.32045    0.07877    0.94436   1.00
H2       0.34441    0.09985    0.99919   1.00
O3       0.46214    0.27000    1.05985   1.00
C4       0.50038    0.22900    0.99982   1.00
C3c      0.47123    0.20757    0.98057   1.00
H1       0.44822    0.22275    0.96524   1.00
C3d      0.53041    0.20865    1.01914   1.00
C3       0.47092    0.16646    0.98121   1.00
O2       0.44432    0.14752    0.95784   1.00
C3       0.52978    0.16773    1.02047   1.00
H1       0.55265    0.15343    1.03681   1.00
C2       0.50028    0.14561    1.00152   1.00
C5       0.48406    0.27121    1.09472   1.00
H2       0.48863    0.30162    1.10532   1.00
H2       0.51325    0.25734    1.09070   1.00
C5       0.46139    0.24871    1.12568   1.00
H2       0.45587    0.21863    1.11462   1.00
H2       0.43246    0.26302    1.12971   1.00
C5       0.48400    0.24738    1.16447   1.00
H2       0.48986    0.27732    1.17555   1.00
H2       0.51230    0.23189    1.16078   1.00
C5       0.45998    0.22555    1.19553   1.00
C5       0.58963    0.23895    1.01674   1.00
C5       0.41009    0.13930    0.97937   1.00
H2       0.58008    0.25912    0.99317   1.00
H2       0.60360    0.21288    1.00313   1.00
H2       0.39632    0.16700    0.98953   1.00
H2       0.41602    0.12105    1.00579   1.00
H2       0.37062    0.05970    0.97639   1.00
H2       0.63656    0.30753    1.00239   1.00
H2       0.66353    0.26237    0.99551   1.00
C2       0.50047    0.35395    1.00264   1.00
C3       0.51804    0.33403    0.97115   1.00
O2       0.54343    0.35326    0.94653   1.00
C3       0.48142    0.33174    1.03177   1.00
H1       0.46682    0.34615    1.05572   1.00
C3a      0.51711    0.29287    0.96998   1.00
H1       0.53261    0.27798    0.94688   1.00
C3b      0.48162    0.29078    1.03118   1.00
C4       0.49962    0.27100    1.00018   1.00
O3       0.55810    0.22833    1.04099   1.00
C5       0.52454    0.36280    0.91121   1.00
H2       0.51370    0.33609    0.89601   1.00
C5       0.55454    0.38326    0.88551   1.00
H2       0.49939    0.38274    0.91647   1.00
H2       0.57354    0.36068    0.87191   1.00
H2       0.57363    0.40093    0.90500   1.00
C5       0.53580    0.40918    0.85396   1.00
H2       0.51453    0.39176    0.83676   1.00
C5       0.56704    0.42547    0.82609   1.00
H2       0.52069    0.43493    0.86714   1.00
C5       0.61961    0.25983    1.04212   1.00
H2       0.63401    0.23785    1.06125   1.00
H2       0.60381    0.28048    1.06164   1.00
C5       0.64998    0.28200    1.01754   1.00
C5       0.68262    0.29775    1.04408   1.00
H2       0.32982    0.05714    0.92090   1.00
C5       0.28730    0.06088    0.96885   1.00
H2       0.30973    0.10677    0.92997   1.00
C5       0.48600    0.21663    1.23105   1.00
H2       0.43435    0.24449    1.20505   1.00
H2       0.44856    0.19707    1.18272   1.00
C5       0.54703    0.44503    0.79095   1.00
H2       0.58563    0.44789    0.84215   1.00
H2       0.58641    0.40063    0.81541   1.00
H2       0.66914    0.31398    1.06979   1.00
H2       0.70094    0.27239    1.05536   1.00
C5       0.70872    0.32583    1.02066   1.00
H2       0.29975    0.04884    0.99723   1.00
H2       0.26470    0.08429    0.97570   1.00
H2       0.27292    0.03626    0.95172   1.00
H2       0.51537    0.23180    1.22737   1.00
H2       0.47120    0.22771    1.25870   1.00
H2       0.49070    0.18379    1.23339   1.00
H2       0.51980    0.46111    0.80124   1.00
H2       0.56801    0.46664    0.77686   1.00
H2       0.53846    0.42181    0.76873   1.00
H2       0.69746    0.35693    1.02413   1.00
H2       0.73993    0.32402    1.03200   1.00
H2       0.70809    0.31734    0.98852   1.00
C5       0.45152    0.38285    0.61782   1.00
H2       0.43054    0.40224    0.60255   1.00
H2       0.43397    0.36582    0.63910   1.00
C5       0.47100    0.35541    0.58806   1.00
C5       0.44436    0.32045    0.57877   1.00
H2       0.49919    0.34441    0.59985   1.00
O3       0.55985    0.46214    0.77000   1.00
C4       0.49982    0.50038    0.72900   1.00
C3c      0.48057    0.47123    0.70757   1.00
H1       0.46524    0.44822    0.72275   1.00
C3d      0.51914    0.53041    0.70865   1.00
C3       0.48121    0.47092    0.66646   1.00
O2       0.45784    0.44432    0.64752   1.00
C3       0.52047    0.52978    0.66773   1.00
H1       0.53681    0.55265    0.65343   1.00
C2       0.50152    0.50028    0.64561   1.00
C5       0.59472    0.48406    0.77121   1.00
H2       0.60532    0.48863    0.80162   1.00
H2       0.59070    0.51325    0.75734   1.00
C5       0.62568    0.46139    0.74871   1.00
H2       0.61462    0.45587    0.71863   1.00
H2       0.62971    0.43246    0.76302   1.00
C5       0.66447    0.48400    0.74738   1.00
H2       0.67555    0.48986    0.77732   1.00
H2       0.66078    0.51230    0.73189   1.00
C5       0.69553    0.45998    0.72555   1.00
C5       0.51674    0.58963    0.73895   1.00
C5       0.47937    0.41009    0.63930   1.00
H2       0.49317    0.58008    0.75912   1.00
H2       0.50313    0.60360    0.71288   1.00
H2       0.48953    0.39632    0.66700   1.00
H2       0.50579    0.41602    0.62105   1.00
H2       0.47639    0.37062    0.55970   1.00
H2       0.50239    0.63656    0.80753   1.00
H2       0.49551    0.66353    0.76237   1.00
C2       0.50264    0.50047    0.85395   1.00
C3       0.47115    0.51804    0.83403   1.00
O2       0.44653    0.54343    0.85326   1.00
C3       0.53177    0.48142    0.83174   1.00
H1       0.55572    0.46682    0.84615   1.00
C3a      0.46998    0.51711    0.79287   1.00
H1       0.44688    0.53261    0.77798   1.00
C3b      0.53118    0.48162    0.79078   1.00
C4       0.50018    0.49962    0.77100   1.00
O3       0.54099    0.55810    0.72833   1.00
C5       0.41121    0.52454    0.86280   1.00
H2       0.39601    0.51370    0.83609   1.00
C5       0.38551    0.55454    0.88326   1.00
H2       0.41647    0.49939    0.88274   1.00
H2       0.37191    0.57354    0.86068   1.00
H2       0.40500    0.57363    0.90093   1.00
C5       0.35396    0.53580    0.90918   1.00
H2       0.33676    0.51453    0.89176   1.00
C5       0.32609    0.56704    0.92547   1.00
H2       0.36714    0.52069    0.93493   1.00
C5       0.54212    0.61961    0.75983   1.00
H2       0.56125    0.63401    0.73785   1.00
H2       0.56164    0.60381    0.78048   1.00
C5       0.51754    0.64998    0.78200   1.00
C5       0.54408    0.68262    0.79775   1.00
H2       0.42090    0.32982    0.55714   1.00
C5       0.46885    0.28730    0.56088   1.00
H2       0.42997    0.30973    0.60677   1.00
C5       0.73105    0.48600    0.71663   1.00
H2       0.70505    0.43435    0.74449   1.00
H2       0.68272    0.44856    0.69707   1.00
C5       0.29095    0.54703    0.94503   1.00
H2       0.34215    0.58563    0.94789   1.00
H2       0.31541    0.58641    0.90063   1.00
H2       0.56979    0.66914    0.81398   1.00
H2       0.55536    0.70094    0.77239   1.00
C5       0.52066    0.70872    0.82583   1.00
H2       0.49723    0.29975    0.54884   1.00
H2       0.47570    0.26470    0.58429   1.00
H2       0.45172    0.27292    0.53626   1.00
H2       0.72737    0.51537    0.73180   1.00
H2       0.75870    0.47120    0.72771   1.00
H2       0.73339    0.49070    0.68379   1.00
H2       0.30124    0.51980    0.96111   1.00
H2       0.27686    0.56801    0.96664   1.00
H2       0.26873    0.53846    0.92181   1.00
H2       0.52413    0.69746    0.85693   1.00
H2       0.53200    0.73993    0.82402   1.00
H2       0.48852    0.70809    0.81734   1.00
C5       0.45152    1.11715    0.88218   1.00
H2       0.43054    1.09776    0.89745   1.00
H2       0.43397    1.13418    0.86090   1.00
C5       0.47100    1.14459    0.91194   1.00
C5       0.44436    1.17955    0.92123   1.00
H2       0.49919    1.15559    0.90015   1.00
O3       0.55985    1.03786    0.73000   1.00
C4       0.49982    0.99962    0.77100   1.00
C3c      0.48057    1.02877    0.79243   1.00
H1       0.46524    1.05178    0.77725   1.00
C3d      0.51914    0.96959    0.79135   1.00
C3       0.48121    1.02908    0.83354   1.00
O2       0.45784    1.05568    0.85248   1.00
C3       0.52047    0.97022    0.83227   1.00
H1       0.53681    0.94735    0.84657   1.00
C2       0.50152    0.99972    0.85439   1.00
C5       0.59472    1.01594    0.72879   1.00
H2       0.60532    1.01137    0.69838   1.00
H2       0.59070    0.98675    0.74266   1.00
C5       0.62568    1.03861    0.75129   1.00
H2       0.61462    1.04413    0.78137   1.00
H2       0.62971    1.06754    0.73698   1.00
C5       0.66447    1.01600    0.75262   1.00
H2       0.67555    1.01014    0.72268   1.00
H2       0.66078    0.98770    0.76811   1.00
C5       0.69553    1.04002    0.77445   1.00
C5       0.51674    0.91037    0.76105   1.00
C5       0.47937    1.08991    0.86070   1.00
H2       0.49317    0.91992    0.74088   1.00
H2       0.50313    0.89640    0.78712   1.00
H2       0.48953    1.10368    0.83300   1.00
H2       0.50579    1.08398    0.87895   1.00
H2       0.47639    1.12938    0.94030   1.00
H2       0.50239    0.86344    0.69247   1.00
H2       0.49551    0.83647    0.73763   1.00
C2       0.50264    0.99953    0.64605   1.00
C3       0.47115    0.98196    0.66597   1.00
O2       0.44653    0.95657    0.64674   1.00
C3       0.53177    1.01858    0.66826   1.00
H1       0.55572    1.03318    0.65385   1.00
C3a      0.46998    0.98289    0.70713   1.00
H1       0.44688    0.96739    0.72202   1.00
C3b      0.53118    1.01838    0.70922   1.00
C4       0.50018    1.00038    0.72900   1.00
O3       0.54099    0.94190    0.77167   1.00
C5       0.41121    0.97546    0.63720   1.00
H2       0.39601    0.98630    0.66391   1.00
C5       0.38551    0.94546    0.61674   1.00
H2       0.41647    1.00061    0.61726   1.00
H2       0.37191    0.92646    0.63932   1.00
H2       0.40500    0.92637    0.59907   1.00
C5       0.35396    0.96420    0.59082   1.00
H2       0.33676    0.98547    0.60824   1.00
C5       0.32609    0.93296    0.57453   1.00
H2       0.36714    0.97931    0.56507   1.00
C5       0.54212    0.88039    0.74017   1.00
H2       0.56125    0.86599    0.76215   1.00
H2       0.56164    0.89619    0.71952   1.00
C5       0.51754    0.85002    0.71800   1.00
C5       0.54408    0.81738    0.70225   1.00
H2       0.42090    1.17018    0.94286   1.00
C5       0.46885    1.21270    0.93912   1.00
H2       0.42997    1.19027    0.89323   1.00
C5       0.73105    1.01400    0.78337   1.00
H2       0.70505    1.06565    0.75551   1.00
H2       0.68272    1.05144    0.80293   1.00
C5       0.29095    0.95297    0.55497   1.00
H2       0.34215    0.91437    0.55211   1.00
H2       0.31541    0.91359    0.59937   1.00
H2       0.56979    0.83086    0.68602   1.00
H2       0.55536    0.79906    0.72761   1.00
C5       0.52066    0.79128    0.67417   1.00
H2       0.49723    1.20025    0.95116   1.00
H2       0.47570    1.23530    0.91571   1.00
H2       0.45172    1.22708    0.96374   1.00
H2       0.72737    0.98463    0.76820   1.00
H2       0.75870    1.02880    0.77229   1.00
H2       0.73339    1.00930    0.81621   1.00
H2       0.30124    0.98020    0.53889   1.00
H2       0.27686    0.93199    0.53336   1.00
H2       0.26873    0.96154    0.57819   1.00
H2       0.52413    0.80254    0.64307   1.00
H2       0.53200    0.76007    0.67598   1.00
H2       0.48852    0.79191    0.68266   1.00
C5       0.61715    1.38218    0.45152   1.00
H2       0.59776    1.39745    0.43054   1.00
H2       0.63418    1.36090    0.43397   1.00
C5       0.64459    1.41194    0.47100   1.00
C5       0.67955    1.42123    0.44436   1.00
H2       0.65559    1.40015    0.49919   1.00
O3       0.53786    1.23000    0.55985   1.00
C4       0.49962    1.27100    0.49982   1.00
C3c      0.52877    1.29243    0.48057   1.00
H1       0.55178    1.27725    0.46524   1.00
C3d      0.46959    1.29135    0.51914   1.00
C3       0.52908    1.33354    0.48121   1.00
O2       0.55568    1.35248    0.45784   1.00
C3       0.47022    1.33227    0.52047   1.00
H1       0.44735    1.34657    0.53681   1.00
C2       0.49972    1.35439    0.50152   1.00
C5       0.51594    1.22879    0.59472   1.00
H2       0.51137    1.19838    0.60532   1.00
H2       0.48675    1.24266    0.59070   1.00
C5       0.53861    1.25129    0.62568   1.00
H2       0.54413    1.28137    0.61462   1.00
H2       0.56754    1.23698    0.62971   1.00
C5       0.51600    1.25262    0.66447   1.00
H2       0.51014    1.22268    0.67555   1.00
H2       0.48770    1.26811    0.66078   1.00
C5       0.54002    1.27445    0.69553   1.00
C5       0.41037    1.26105    0.51674   1.00
C5       0.58991    1.36070    0.47937   1.00
H2       0.41992    1.24088    0.49317   1.00
H2       0.39640    1.28712    0.50313   1.00
H2       0.60368    1.33300    0.48953   1.00
H2       0.58398    1.37895    0.50579   1.00
H2       0.62938    1.44030    0.47639   1.00
H2       0.36344    1.19247    0.50239   1.00
H2       0.33647    1.23763    0.49551   1.00
C2       0.49953    1.14605    0.50264   1.00
C3       0.48196    1.16597    0.47115   1.00
O2       0.45657    1.14674    0.44653   1.00
C3       0.51858    1.16826    0.53177   1.00
H1       0.53318    1.15385    0.55572   1.00
C3a      0.48289    1.20713    0.46998   1.00
H1       0.46739    1.22202    0.44688   1.00
C3b      0.51838    1.20922    0.53118   1.00
C4       0.50038    1.22900    0.50018   1.00
O3       0.44190    1.27167    0.54099   1.00
C5       0.47546    1.13720    0.41121   1.00
H2       0.48630    1.16391    0.39601   1.00
C5       0.44546    1.11674    0.38551   1.00
H2       0.50061    1.11726    0.41647   1.00
H2       0.42646    1.13932    0.37191   1.00
H2       0.42637    1.09907    0.40500   1.00
C5       0.46420    1.09082    0.35396   1.00
H2       0.48547    1.10824    0.33676   1.00
C5       0.43296    1.07453    0.32609   1.00
H2       0.47931    1.06507    0.36714   1.00
C5       0.38039    1.24017    0.54212   1.00
H2       0.36599    1.26215    0.56125   1.00
H2       0.39619    1.21952    0.56164   1.00
C5       0.35002    1.21800    0.51754   1.00
C5       0.31738    1.20225    0.54408   1.00
H2       0.67018    1.44286    0.42090   1.00
C5       0.71270    1.43912    0.46885   1.00
H2       0.69027    1.39323    0.42997   1.00
C5       0.51400    1.28337    0.73105   1.00
H2       0.56565    1.25551    0.70505   1.00
H2       0.55144    1.30293    0.68272   1.00
C5       0.45297    1.05497    0.29095   1.00
H2       0.41437    1.05211    0.34215   1.00
H2       0.41359    1.09937    0.31541   1.00
H2       0.33086    1.18602    0.56979   1.00
H2       0.29906    1.22761    0.55536   1.00
C5       0.29128    1.17417    0.52066   1.00
H2       0.70025    1.45116    0.49723   1.00
H2       0.73530    1.41571    0.47570   1.00
H2       0.72708    1.46374    0.45172   1.00
H2       0.48463    1.26820    0.72737   1.00
H2       0.52880    1.27229    0.75870   1.00
H2       0.50930    1.31621    0.73339   1.00
H2       0.48020    1.03889    0.30124   1.00
H2       0.43199    1.03336    0.27686   1.00
H2       0.46154    1.07819    0.26873   1.00
H2       0.30254    1.14307    0.52413   1.00
H2       0.26007    1.17598    0.53200   1.00
H2       0.29191    1.18266    0.48852   1.00
C5       0.11782    0.95152    0.38285   1.00
H2       0.10255    0.93054    0.40224   1.00
H2       0.13910    0.93397    0.36582   1.00
C5       0.08806    0.97100    0.35541   1.00
C5       0.07877    0.94436    0.32045   1.00
H2       0.09985    0.99919    0.34441   1.00
O3       0.27000    1.05985    0.46214   1.00
C4       0.22900    0.99982    0.50038   1.00
C3c      0.20757    0.98057    0.47123   1.00
H1       0.22275    0.96524    0.44822   1.00
C3d      0.20865    1.01914    0.53041   1.00
C3       0.16646    0.98121    0.47092   1.00
O2       0.14752    0.95784    0.44432   1.00
C3       0.16773    1.02047    0.52978   1.00
H1       0.15343    1.03681    0.55265   1.00
C2       0.14561    1.00152    0.50028   1.00
C5       0.27121    1.09472    0.48406   1.00
H2       0.30162    1.10532    0.48863   1.00
H2       0.25734    1.09070    0.51325   1.00
C5       0.24871    1.12568    0.46139   1.00
H2       0.21863    1.11462    0.45587   1.00
H2       0.26302    1.12971    0.43246   1.00
C5       0.24738    1.16447    0.48400   1.00
H2       0.27732    1.17555    0.48986   1.00
H2       0.23189    1.16078    0.51230   1.00
C5       0.22555    1.19553    0.45998   1.00
C5       0.23895    1.01674    0.58963   1.00
C5       0.13930    0.97937    0.41009   1.00
H2       0.25912    0.99317    0.58008   1.00
H2       0.21288    1.00313    0.60360   1.00
H2       0.16700    0.98953    0.39632   1.00
H2       0.12105    1.00579    0.41602   1.00
H2       0.05970    0.97639    0.37062   1.00
H2       0.30753    1.00239    0.63656   1.00
H2       0.26237    0.99551    0.66353   1.00
C2       0.35395    1.00264    0.50047   1.00
C3       0.33403    0.97115    0.51804   1.00
O2       0.35326    0.94653    0.54343   1.00
C3       0.33174    1.03177    0.48142   1.00
H1       0.34615    1.05572    0.46682   1.00
C3a      0.29287    0.96998    0.51711   1.00
H1       0.27798    0.94688    0.53261   1.00
C3b      0.29078    1.03118    0.48162   1.00
C4       0.27100    1.00018    0.49962   1.00
O3       0.22833    1.04099    0.55810   1.00
C5       0.36280    0.91121    0.52454   1.00
H2       0.33609    0.89601    0.51370   1.00
C5       0.38326    0.88551    0.55454   1.00
H2       0.38274    0.91647    0.49939   1.00
H2       0.36068    0.87191    0.57354   1.00
H2       0.40093    0.90500    0.57363   1.00
C5       0.40918    0.85396    0.53580   1.00
H2       0.39176    0.83676    0.51453   1.00
C5       0.42547    0.82609    0.56704   1.00
H2       0.43493    0.86714    0.52069   1.00
C5       0.25983    1.04212    0.61961   1.00
H2       0.23785    1.06125    0.63401   1.00
H2       0.28048    1.06164    0.60381   1.00
C5       0.28200    1.01754    0.64998   1.00
C5       0.29775    1.04408    0.68262   1.00
H2       0.05714    0.92090    0.32982   1.00
C5       0.06088    0.96885    0.28730   1.00
H2       0.10677    0.92997    0.30973   1.00
C5       0.21663    1.23105    0.48600   1.00
H2       0.24449    1.20505    0.43435   1.00
H2       0.19707    1.18272    0.44856   1.00
C5       0.44503    0.79095    0.54703   1.00
H2       0.44789    0.84215    0.58563   1.00
H2       0.40063    0.81541    0.58641   1.00
H2       0.31398    1.06979    0.66914   1.00
H2       0.27239    1.05536    0.70094   1.00
C5       0.32583    1.02066    0.70872   1.00
H2       0.04884    0.99723    0.29975   1.00
H2       0.08429    0.97570    0.26470   1.00
H2       0.03626    0.95172    0.27292   1.00
H2       0.23180    1.22737    0.51537   1.00
H2       0.22771    1.25870    0.47120   1.00
H2       0.18379    1.23339    0.49070   1.00
H2       0.46111    0.80124    0.51980   1.00
H2       0.46664    0.77686    0.56801   1.00
H2       0.42181    0.76873    0.53846   1.00
H2       0.35693    1.02413    0.69746   1.00
H2       0.32402    1.03200    0.73993   1.00
H2       0.31734    0.98852    0.70809   1.00
C5       0.88218    0.95152    0.61715   1.00
H2       0.89745    0.93054    0.59776   1.00
H2       0.86090    0.93397    0.63418   1.00
C5       0.91194    0.97100    0.64459   1.00
C5       0.92123    0.94436    0.67955   1.00
H2       0.90015    0.99919    0.65559   1.00
O3       0.73000    1.05985    0.53786   1.00
C4       0.77100    0.99982    0.49962   1.00
C3c      0.79243    0.98057    0.52877   1.00
H1       0.77725    0.96524    0.55178   1.00
C3d      0.79135    1.01914    0.46959   1.00
C3       0.83354    0.98121    0.52908   1.00
O2       0.85248    0.95784    0.55568   1.00
C3       0.83227    1.02047    0.47022   1.00
H1       0.84657    1.03681    0.44735   1.00
C2       0.85439    1.00152    0.49972   1.00
C5       0.72879    1.09472    0.51594   1.00
H2       0.69838    1.10532    0.51137   1.00
H2       0.74266    1.09070    0.48675   1.00
C5       0.75129    1.12568    0.53861   1.00
H2       0.78137    1.11462    0.54413   1.00
H2       0.73698    1.12971    0.56754   1.00
C5       0.75262    1.16447    0.51600   1.00
H2       0.72268    1.17555    0.51014   1.00
H2       0.76811    1.16078    0.48770   1.00
C5       0.77445    1.19553    0.54002   1.00
C5       0.76105    1.01674    0.41037   1.00
C5       0.86070    0.97937    0.58991   1.00
H2       0.74088    0.99317    0.41992   1.00
H2       0.78712    1.00313    0.39640   1.00
H2       0.83300    0.98953    0.60368   1.00
H2       0.87895    1.00579    0.58398   1.00
H2       0.94030    0.97639    0.62938   1.00
H2       0.69247    1.00239    0.36344   1.00
H2       0.73763    0.99551    0.33647   1.00
C2       0.64605    1.00264    0.49953   1.00
C3       0.66597    0.97115    0.48196   1.00
O2       0.64674    0.94653    0.45657   1.00
C3       0.66826    1.03177    0.51858   1.00
H1       0.65385    1.05572    0.53318   1.00
C3a      0.70713    0.96998    0.48289   1.00
H1       0.72202    0.94688    0.46739   1.00
C3b      0.70922    1.03118    0.51838   1.00
C4       0.72900    1.00018    0.50038   1.00
O3       0.77167    1.04099    0.44190   1.00
C5       0.63720    0.91121    0.47546   1.00
H2       0.66391    0.89601    0.48630   1.00
C5       0.61674    0.88551    0.44546   1.00
H2       0.61726    0.91647    0.50061   1.00
H2       0.63932    0.87191    0.42646   1.00
H2       0.59907    0.90500    0.42637   1.00
C5       0.59082    0.85396    0.46420   1.00
H2       0.60824    0.83676    0.48547   1.00
C5       0.57453    0.82609    0.43296   1.00
H2       0.56507    0.86714    0.47931   1.00
C5       0.74017    1.04212    0.38039   1.00
H2       0.76215    1.06125    0.36599   1.00
H2       0.71952    1.06164    0.39619   1.00
C5       0.71800    1.01754    0.35002   1.00
C5       0.70225    1.04408    0.31738   1.00
H2       0.94286    0.92090    0.67018   1.00
C5       0.93912    0.96885    0.71270   1.00
H2       0.89323    0.92997    0.69027   1.00
C5       0.78337    1.23105    0.51400   1.00
H2       0.75551    1.20505    0.56565   1.00
H2       0.80293    1.18272    0.55144   1.00
C5       0.55497    0.79095    0.45297   1.00
H2       0.55211    0.84215    0.41437   1.00
H2       0.59937    0.81541    0.41359   1.00
H2       0.68602    1.06979    0.33086   1.00
H2       0.72761    1.05536    0.29906   1.00
C5       0.67417    1.02066    0.29128   1.00
H2       0.95116    0.99723    0.70025   1.00
H2       0.91571    0.97570    0.73530   1.00
H2       0.96374    0.95172    0.72708   1.00
H2       0.76820    1.22737    0.48463   1.00
H2       0.77229    1.25870    0.52880   1.00
H2       0.81621    1.23339    0.50930   1.00
H2       0.53889    0.80124    0.48020   1.00
H2       0.53336    0.77686    0.43199   1.00
H2       0.57819    0.76873    0.46154   1.00
H2       0.64307    1.02413    0.30254   1.00
H2       0.67598    1.03200    0.26007   1.00
H2       0.68266    0.98852    0.29191   1.00
C5       0.38285    0.61782    0.45152   1.00
H2       0.40224    0.60255    0.43054   1.00
H2       0.36582    0.63910    0.43397   1.00
C5       0.35541    0.58806    0.47100   1.00
C5       0.32045    0.57877    0.44436   1.00
H2       0.34441    0.59985    0.49919   1.00
O3       0.46214    0.77000    0.55985   1.00
C4       0.50038    0.72900    0.49982   1.00
C3c      0.47123    0.70757    0.48057   1.00
H1       0.44822    0.72275    0.46524   1.00
C3d      0.53041    0.70865    0.51914   1.00
C3       0.47092    0.66646    0.48121   1.00
O2       0.44432    0.64752    0.45784   1.00
C3       0.52978    0.66773    0.52047   1.00
H1       0.55265    0.65343    0.53681   1.00
C2       0.50028    0.64561    0.50152   1.00
C5       0.48406    0.77121    0.59472   1.00
H2       0.48863    0.80162    0.60532   1.00
H2       0.51325    0.75734    0.59070   1.00
C5       0.46139    0.74871    0.62568   1.00
H2       0.45587    0.71863    0.61462   1.00
H2       0.43246    0.76302    0.62971   1.00
C5       0.48400    0.74738    0.66447   1.00
H2       0.48986    0.77732    0.67555   1.00
H2       0.51230    0.73189    0.66078   1.00
C5       0.45998    0.72555    0.69553   1.00
C5       0.58963    0.73895    0.51674   1.00
C5       0.41009    0.63930    0.47937   1.00
H2       0.58008    0.75912    0.49317   1.00
H2       0.60360    0.71288    0.50313   1.00
H2       0.39632    0.66700    0.48953   1.00
H2       0.41602    0.62105    0.50579   1.00
H2       0.37062    0.55970    0.47639   1.00
H2       0.63656    0.80753    0.50239   1.00
H2       0.66353    0.76237    0.49551   1.00
C2       0.50047    0.85395    0.50264   1.00
C3       0.51804    0.83403    0.47115   1.00
O2       0.54343    0.85326    0.44653   1.00
C3       0.48142    0.83174    0.53177   1.00
H1       0.46682    0.84615    0.55572   1.00
C3a      0.51711    0.79287    0.46998   1.00
H1       0.53261    0.77798    0.44688   1.00
C3b      0.48162    0.79078    0.53118   1.00
C4       0.49962    0.77100    0.50018   1.00
O3       0.55810    0.72833    0.54099   1.00
C5       0.52454    0.86280    0.41121   1.00
H2       0.51370    0.83609    0.39601   1.00
C5       0.55454    0.88326    0.38551   1.00
H2       0.49939    0.88274    0.41647   1.00
H2       0.57354    0.86068    0.37191   1.00
H2       0.57363    0.90093    0.40500   1.00
C5       0.53580    0.90918    0.35396   1.00
H2       0.51453    0.89176    0.33676   1.00
C5       0.56704    0.92547    0.32609   1.00
H2       0.52069    0.93493    0.36714   1.00
C5       0.61961    0.75983    0.54212   1.00
H2       0.63401    0.73785    0.56125   1.00
H2       0.60381    0.78048    0.56164   1.00
C5       0.64998    0.78200    0.51754   1.00
C5       0.68262    0.79775    0.54408   1.00
H2       0.32982    0.55714    0.42090   1.00
C5       0.28730    0.56088    0.46885   1.00
H2       0.30973    0.60677    0.42997   1.00
C5       0.48600    0.71663    0.73105   1.00
H2       0.43435    0.74449    0.70505   1.00
H2       0.44856    0.69707    0.68272   1.00
C5       0.54703    0.94503    0.29095   1.00
H2       0.58563    0.94789    0.34215   1.00
H2       0.58641    0.90063    0.31541   1.00
H2       0.66914    0.81398    0.56979   1.00
H2       0.70094    0.77239    0.55536   1.00
C5       0.70872    0.82583    0.52066   1.00
H2       0.29975    0.54884    0.49723   1.00
H2       0.26470    0.58429    0.47570   1.00
H2       0.27292    0.53626    0.45172   1.00
H2       0.51537    0.73180    0.72737   1.00
H2       0.47120    0.72771    0.75870   1.00
H2       0.49070    0.68379    0.73339   1.00
H2       0.51980    0.96111    0.30124   1.00
H2       0.56801    0.96664    0.27686   1.00
H2       0.53846    0.92181    0.26873   1.00
H2       0.69746    0.85693    0.52413   1.00
H2       0.73993    0.82402    0.53200   1.00
H2       0.70809    0.81734    0.48852   1.00
C5       0.45152    0.88285    0.11782   1.00
H2       0.43054    0.90224    0.10255   1.00
H2       0.43397    0.86582    0.13910   1.00
C5       0.47100    0.85541    0.08806   1.00
C5       0.44436    0.82045    0.07877   1.00
H2       0.49919    0.84441    0.09985   1.00
O3       0.55985    0.96214    0.27000   1.00
C4       0.49982    1.00038    0.22900   1.00
C3c      0.48057    0.97123    0.20757   1.00
H1       0.46524    0.94822    0.22275   1.00
C3d      0.51914    1.03041    0.20865   1.00
C3       0.48121    0.97092    0.16646   1.00
O2       0.45784    0.94432    0.14752   1.00
C3       0.52047    1.02978    0.16773   1.00
H1       0.53681    1.05265    0.15343   1.00
C2       0.50152    1.00028    0.14561   1.00
C5       0.59472    0.98406    0.27121   1.00
H2       0.60532    0.98863    0.30162   1.00
H2       0.59070    1.01325    0.25734   1.00
C5       0.62568    0.96139    0.24871   1.00
H2       0.61462    0.95587    0.21863   1.00
H2       0.62971    0.93246    0.26302   1.00
C5       0.66447    0.98400    0.24738   1.00
H2       0.67555    0.98986    0.27732   1.00
H2       0.66078    1.01230    0.23189   1.00
C5       0.69553    0.95998    0.22555   1.00
C5       0.51674    1.08963    0.23895   1.00
C5       0.47937    0.91009    0.13930   1.00
H2       0.49317    1.08008    0.25912   1.00
H2       0.50313    1.10360    0.21288   1.00
H2       0.48953    0.89632    0.16700   1.00
H2       0.50579    0.91602    0.12105   1.00
H2       0.47639    0.87062    0.05970   1.00
H2       0.50239    1.13656    0.30753   1.00
H2       0.49551    1.16353    0.26237   1.00
C2       0.50264    1.00047    0.35395   1.00
C3       0.47115    1.01804    0.33403   1.00
O2       0.44653    1.04343    0.35326   1.00
C3       0.53177    0.98142    0.33174   1.00
H1       0.55572    0.96682    0.34615   1.00
C3a      0.46998    1.01711    0.29287   1.00
H1       0.44688    1.03261    0.27798   1.00
C3b      0.53118    0.98162    0.29078   1.00
C4       0.50018    0.99962    0.27100   1.00
O3       0.54099    1.05810    0.22833   1.00
C5       0.41121    1.02454    0.36280   1.00
H2       0.39601    1.01370    0.33609   1.00
C5       0.38551    1.05454    0.38326   1.00
H2       0.41647    0.99939    0.38274   1.00
H2       0.37191    1.07354    0.36068   1.00
H2       0.40500    1.07363    0.40093   1.00
C5       0.35396    1.03580    0.40918   1.00
H2       0.33676    1.01453    0.39176   1.00
C5       0.32609    1.06704    0.42547   1.00
H2       0.36714    1.02069    0.43493   1.00
C5       0.54212    1.11961    0.25983   1.00
H2       0.56125    1.13401    0.23785   1.00
H2       0.56164    1.10381    0.28048   1.00
C5       0.51754    1.14998    0.28200   1.00
C5       0.54408    1.18262    0.29775   1.00
H2       0.42090    0.82982    0.05714   1.00
C5       0.46885    0.78730    0.06088   1.00
H2       0.42997    0.80973    0.10677   1.00
C5       0.73105    0.98600    0.21663   1.00
H2       0.70505    0.93435    0.24449   1.00
H2       0.68272    0.94856    0.19707   1.00
C5       0.29095    1.04703    0.44503   1.00
H2       0.34215    1.08563    0.44789   1.00
H2       0.31541    1.08641    0.40063   1.00
H2       0.56979    1.16914    0.31398   1.00
H2       0.55536    1.20094    0.27239   1.00
C5       0.52066    1.20872    0.32583   1.00
H2       0.49723    0.79975    0.04884   1.00
H2       0.47570    0.76470    0.08429   1.00
H2       0.45172    0.77292    0.03626   1.00
H2       0.72737    1.01537    0.23180   1.00
H2       0.75870    0.97120    0.22771   1.00
H2       0.73339    0.99070    0.18379   1.00
H2       0.30124    1.01980    0.46111   1.00
H2       0.27686    1.06801    0.46664   1.00
H2       0.26873    1.03846    0.42181   1.00
H2       0.52413    1.19746    0.35693   1.00
H2       0.53200    1.23993    0.32402   1.00
H2       0.48852    1.20809    0.31734   1.00
C5       0.95152    0.61715    0.88218   1.00
H2       0.93054    0.59776    0.89745   1.00
H2       0.93397    0.63418    0.86090   1.00
C5       0.97100    0.64459    0.91194   1.00
C5       0.94436    0.67955    0.92123   1.00
H2       0.99919    0.65559    0.90015   1.00
O3       1.05985    0.53786    0.73000   1.00
C4       0.99982    0.49962    0.77100   1.00
C3c      0.98057    0.52877    0.79243   1.00
H1       0.96524    0.55178    0.77725   1.00
C3d      1.01914    0.46959    0.79135   1.00
C3       0.98121    0.52908    0.83354   1.00
O2       0.95784    0.55568    0.85248   1.00
C3       1.02047    0.47022    0.83227   1.00
H1       1.03681    0.44735    0.84657   1.00
C2       1.00152    0.49972    0.85439   1.00
C5       1.09472    0.51594    0.72879   1.00
H2       1.10532    0.51137    0.69838   1.00
H2       1.09070    0.48675    0.74266   1.00
C5       1.12568    0.53861    0.75129   1.00
H2       1.11462    0.54413    0.78137   1.00
H2       1.12971    0.56754    0.73698   1.00
C5       1.16447    0.51600    0.75262   1.00
H2       1.17555    0.51014    0.72268   1.00
H2       1.16078    0.48770    0.76811   1.00
C5       1.19553    0.54002    0.77445   1.00
C5       1.01674    0.41037    0.76105   1.00
C5       0.97937    0.58991    0.86070   1.00
H2       0.99317    0.41992    0.74088   1.00
H2       1.00313    0.39640    0.78712   1.00
H2       0.98953    0.60368    0.83300   1.00
H2       1.00579    0.58398    0.87895   1.00
H2       0.97639    0.62938    0.94030   1.00
H2       1.00239    0.36344    0.69247   1.00
H2       0.99551    0.33647    0.73763   1.00
C2       1.00264    0.49953    0.64605   1.00
C3       0.97115    0.48196    0.66597   1.00
O2       0.94653    0.45657    0.64674   1.00
C3       1.03177    0.51858    0.66826   1.00
H1       1.05572    0.53318    0.65385   1.00
C3a      0.96998    0.48289    0.70713   1.00
H1       0.94688    0.46739    0.72202   1.00
C3b      1.03118    0.51838    0.70922   1.00
C4       1.00018    0.50038    0.72900   1.00
O3       1.04099    0.44190    0.77167   1.00
C5       0.91121    0.47546    0.63720   1.00
H2       0.89601    0.48630    0.66391   1.00
C5       0.88551    0.44546    0.61674   1.00
H2       0.91647    0.50061    0.61726   1.00
H2       0.87191    0.42646    0.63932   1.00
H2       0.90500    0.42637    0.59907   1.00
C5       0.85396    0.46420    0.59082   1.00
H2       0.83676    0.48547    0.60824   1.00
C5       0.82609    0.43296    0.57453   1.00
H2       0.86714    0.47931    0.56507   1.00
C5       1.04212    0.38039    0.74017   1.00
H2       1.06125    0.36599    0.76215   1.00
H2       1.06164    0.39619    0.71952   1.00
C5       1.01754    0.35002    0.71800   1.00
C5       1.04408    0.31738    0.70225   1.00
H2       0.92090    0.67018    0.94286   1.00
C5       0.96885    0.71270    0.93912   1.00
H2       0.92997    0.69027    0.89323   1.00
C5       1.23105    0.51400    0.78337   1.00
H2       1.20505    0.56565    0.75551   1.00
H2       1.18272    0.55144    0.80293   1.00
C5       0.79095    0.45297    0.55497   1.00
H2       0.84215    0.41437    0.55211   1.00
H2       0.81541    0.41359    0.59937   1.00
H2       1.06979    0.33086    0.68602   1.00
H2       1.05536    0.29906    0.72761   1.00
C5       1.02066    0.29128    0.67417   1.00
H2       0.99723    0.70025    0.95116   1.00
H2       0.97570    0.73530    0.91571   1.00
H2       0.95172    0.72708    0.96374   1.00
H2       1.22737    0.48463    0.76820   1.00
H2       1.25870    0.52880    0.77229   1.00
H2       1.23339    0.50930    0.81621   1.00
H2       0.80124    0.48020    0.53889   1.00
H2       0.77686    0.43199    0.53336   1.00
H2       0.76873    0.46154    0.57819   1.00
H2       1.02413    0.30254    0.64307   1.00
H2       1.03200    0.26007    0.67598   1.00
H2       0.98852    0.29191    0.68266   1.00
C5       1.11715    0.88218    0.45152   1.00
H2       1.09776    0.89745    0.43054   1.00
H2       1.13418    0.86090    0.43397   1.00
C5       1.14459    0.91194    0.47100   1.00
C5       1.17955    0.92123    0.44436   1.00
H2       1.15559    0.90015    0.49919   1.00
O3       1.03786    0.73000    0.55985   1.00
C4       0.99962    0.77100    0.49982   1.00
C3c      1.02877    0.79243    0.48057   1.00
H1       1.05178    0.77725    0.46524   1.00
C3d      0.96959    0.79135    0.51914   1.00
C3       1.02908    0.83354    0.48121   1.00
O2       1.05568    0.85248    0.45784   1.00
C3       0.97022    0.83227    0.52047   1.00
H1       0.94735    0.84657    0.53681   1.00
C2       0.99972    0.85439    0.50152   1.00
C5       1.01594    0.72879    0.59472   1.00
H2       1.01137    0.69838    0.60532   1.00
H2       0.98675    0.74266    0.59070   1.00
C5       1.03861    0.75129    0.62568   1.00
H2       1.04413    0.78137    0.61462   1.00
H2       1.06754    0.73698    0.62971   1.00
C5       1.01600    0.75262    0.66447   1.00
H2       1.01014    0.72268    0.67555   1.00
H2       0.98770    0.76811    0.66078   1.00
C5       1.04002    0.77445    0.69553   1.00
C5       0.91037    0.76105    0.51674   1.00
C5       1.08991    0.86070    0.47937   1.00
H2       0.91992    0.74088    0.49317   1.00
H2       0.89640    0.78712    0.50313   1.00
H2       1.10368    0.83300    0.48953   1.00
H2       1.08398    0.87895    0.50579   1.00
H2       1.12938    0.94030    0.47639   1.00
H2       0.86344    0.69247    0.50239   1.00
H2       0.83647    0.73763    0.49551   1.00
C2       0.99953    0.64605    0.50264   1.00
C3       0.98196    0.66597    0.47115   1.00
O2       0.95657    0.64674    0.44653   1.00
C3       1.01858    0.66826    0.53177   1.00
H1       1.03318    0.65385    0.55572   1.00
C3a      0.98289    0.70713    0.46998   1.00
H1       0.96739    0.72202    0.44688   1.00
C3b      1.01838    0.70922    0.53118   1.00
C4       1.00038    0.72900    0.50018   1.00
O3       0.94190    0.77167    0.54099   1.00
C5       0.97546    0.63720    0.41121   1.00
H2       0.98630    0.66391    0.39601   1.00
C5       0.94546    0.61674    0.38551   1.00
H2       1.00061    0.61726    0.41647   1.00
H2       0.92646    0.63932    0.37191   1.00
H2       0.92637    0.59907    0.40500   1.00
C5       0.96420    0.59082    0.35396   1.00
H2       0.98547    0.60824    0.33676   1.00
C5       0.93296    0.57453    0.32609   1.00
H2       0.97931    0.56507    0.36714   1.00
C5       0.88039    0.74017    0.54212   1.00
H2       0.86599    0.76215    0.56125   1.00
H2       0.89619    0.71952    0.56164   1.00
C5       0.85002    0.71800    0.51754   1.00
C5       0.81738    0.70225    0.54408   1.00
H2       1.17018    0.94286    0.42090   1.00
C5       1.21270    0.93912    0.46885   1.00
H2       1.19027    0.89323    0.42997   1.00
C5       1.01400    0.78337    0.73105   1.00
H2       1.06565    0.75551    0.70505   1.00
H2       1.05144    0.80293    0.68272   1.00
C5       0.95297    0.55497    0.29095   1.00
H2       0.91437    0.55211    0.34215   1.00
H2       0.91359    0.59937    0.31541   1.00
H2       0.83086    0.68602    0.56979   1.00
H2       0.79906    0.72761    0.55536   1.00
C5       0.79128    0.67417    0.52066   1.00
H2       1.20025    0.95116    0.49723   1.00
H2       1.23530    0.91571    0.47570   1.00
H2       1.22708    0.96374    0.45172   1.00
H2       0.98463    0.76820    0.72737   1.00
H2       1.02880    0.77229    0.75870   1.00
H2       1.00930    0.81621    0.73339   1.00
H2       0.98020    0.53889    0.30124   1.00
H2       0.93199    0.53336    0.27686   1.00
H2       0.96154    0.57819    0.26873   1.00
H2       0.80254    0.64307    0.52413   1.00
H2       0.76007    0.67598    0.53200   1.00
H2       0.79191    0.68266    0.48852   1.00
C5       0.61782    0.45152    0.38285   1.00
H2       0.60255    0.43054    0.40224   1.00
H2       0.63910    0.43397    0.36582   1.00
C5       0.58806    0.47100    0.35541   1.00
C5       0.57877    0.44436    0.32045   1.00
H2       0.59985    0.49919    0.34441   1.00
O3       0.77000    0.55985    0.46214   1.00
C4       0.72900    0.49982    0.50038   1.00
C3c      0.70757    0.48057    0.47123   1.00
H1       0.72275    0.46524    0.44822   1.00
C3d      0.70865    0.51914    0.53041   1.00
C3       0.66646    0.48121    0.47092   1.00
O2       0.64752    0.45784    0.44432   1.00
C3       0.66773    0.52047    0.52978   1.00
H1       0.65343    0.53681    0.55265   1.00
C2       0.64561    0.50152    0.50028   1.00
C5       0.77121    0.59472    0.48406   1.00
H2       0.80162    0.60532    0.48863   1.00
H2       0.75734    0.59070    0.51325   1.00
C5       0.74871    0.62568    0.46139   1.00
H2       0.71863    0.61462    0.45587   1.00
H2       0.76302    0.62971    0.43246   1.00
C5       0.74738    0.66447    0.48400   1.00
H2       0.77732    0.67555    0.48986   1.00
H2       0.73189    0.66078    0.51230   1.00
C5       0.72555    0.69553    0.45998   1.00
C5       0.73895    0.51674    0.58963   1.00
C5       0.63930    0.47937    0.41009   1.00
H2       0.75912    0.49317    0.58008   1.00
H2       0.71288    0.50313    0.60360   1.00
H2       0.66700    0.48953    0.39632   1.00
H2       0.62105    0.50579    0.41602   1.00
H2       0.55970    0.47639    0.37062   1.00
H2       0.80753    0.50239    0.63656   1.00
H2       0.76237    0.49551    0.66353   1.00
C2       0.85395    0.50264    0.50047   1.00
C3       0.83403    0.47115    0.51804   1.00
O2       0.85326    0.44653    0.54343   1.00
C3       0.83174    0.53177    0.48142   1.00
H1       0.84615    0.55572    0.46682   1.00
C3a      0.79287    0.46998    0.51711   1.00
H1       0.77798    0.44688    0.53261   1.00
C3b      0.79078    0.53118    0.48162   1.00
C4       0.77100    0.50018    0.49962   1.00
O3       0.72833    0.54099    0.55810   1.00
C5       0.86280    0.41121    0.52454   1.00
H2       0.83609    0.39601    0.51370   1.00
C5       0.88326    0.38551    0.55454   1.00
H2       0.88274    0.41647    0.49939   1.00
H2       0.86068    0.37191    0.57354   1.00
H2       0.90093    0.40500    0.57363   1.00
C5       0.90918    0.35396    0.53580   1.00
H2       0.89176    0.33676    0.51453   1.00
C5       0.92547    0.32609    0.56704   1.00
H2       0.93493    0.36714    0.52069   1.00
C5       0.75983    0.54212    0.61961   1.00
H2       0.73785    0.56125    0.63401   1.00
H2       0.78048    0.56164    0.60381   1.00
C5       0.78200    0.51754    0.64998   1.00
C5       0.79775    0.54408    0.68262   1.00
H2       0.55714    0.42090    0.32982   1.00
C5       0.56088    0.46885    0.28730   1.00
H2       0.60677    0.42997    0.30973   1.00
C5       0.71663    0.73105    0.48600   1.00
H2       0.74449    0.70505    0.43435   1.00
H2       0.69707    0.68272    0.44856   1.00
C5       0.94503    0.29095    0.54703   1.00
H2       0.94789    0.34215    0.58563   1.00
H2       0.90063    0.31541    0.58641   1.00
H2       0.81398    0.56979    0.66914   1.00
H2       0.77239    0.55536    0.70094   1.00
C5       0.82583    0.52066    0.70872   1.00
H2       0.54884    0.49723    0.29975   1.00
H2       0.58429    0.47570    0.26470   1.00
H2       0.53626    0.45172    0.27292   1.00
H2       0.73180    0.72737    0.51537   1.00
H2       0.72771    0.75870    0.47120   1.00
H2       0.68379    0.73339    0.49070   1.00
H2       0.96111    0.30124    0.51980   1.00
H2       0.96664    0.27686    0.56801   1.00
H2       0.92181    0.26873    0.53846   1.00
H2       0.85693    0.52413    0.69746   1.00
H2       0.82402    0.53200    0.73993   1.00
H2       0.81734    0.48852    0.70809   1.00
C5       1.38218    0.45152    0.61715   1.00
H2       1.39745    0.43054    0.59776   1.00
H2       1.36090    0.43397    0.63418   1.00
C5       1.41194    0.47100    0.64459   1.00
C5       1.42123    0.44436    0.67955   1.00
H2       1.40015    0.49919    0.65559   1.00
O3       1.23000    0.55985    0.53786   1.00
C4       1.27100    0.49982    0.49962   1.00
C3c      1.29243    0.48057    0.52877   1.00
H1       1.27725    0.46524    0.55178   1.00
C3d      1.29135    0.51914    0.46959   1.00
C3       1.33354    0.48121    0.52908   1.00
O2       1.35248    0.45784    0.55568   1.00
C3       1.33227    0.52047    0.47022   1.00
H1       1.34657    0.53681    0.44735   1.00
C2       1.35439    0.50152    0.49972   1.00
C5       1.22879    0.59472    0.51594   1.00
H2       1.19838    0.60532    0.51137   1.00
H2       1.24266    0.59070    0.48675   1.00
C5       1.25129    0.62568    0.53861   1.00
H2       1.28137    0.61462    0.54413   1.00
H2       1.23698    0.62971    0.56754   1.00
C5       1.25262    0.66447    0.51600   1.00
H2       1.22268    0.67555    0.51014   1.00
H2       1.26811    0.66078    0.48770   1.00
C5       1.27445    0.69553    0.54002   1.00
C5       1.26105    0.51674    0.41037   1.00
C5       1.36070    0.47937    0.58991   1.00
H2       1.24088    0.49317    0.41992   1.00
H2       1.28712    0.50313    0.39640   1.00
H2       1.33300    0.48953    0.60368   1.00
H2       1.37895    0.50579    0.58398   1.00
H2       1.44030    0.47639    0.62938   1.00
H2       1.19247    0.50239    0.36344   1.00
H2       1.23763    0.49551    0.33647   1.00
C2       1.14605    0.50264    0.49953   1.00
C3       1.16597    0.47115    0.48196   1.00
O2       1.14674    0.44653    0.45657   1.00
C3       1.16826    0.53177    0.51858   1.00
H1       1.15385    0.55572    0.53318   1.00
C3a      1.20713    0.46998    0.48289   1.00
H1       1.22202    0.44688    0.46739   1.00
C3b      1.20922    0.53118    0.51838   1.00
C4       1.22900    0.50018    0.50038   1.00
O3       1.27167    0.54099    0.44190   1.00
C5       1.13720    0.41121    0.47546   1.00
H2       1.16391    0.39601    0.48630   1.00
C5       1.11674    0.38551    0.44546   1.00
H2       1.11726    0.41647    0.50061   1.00
H2       1.13932    0.37191    0.42646   1.00
H2       1.09907    0.40500    0.42637   1.00
C5       1.09082    0.35396    0.46420   1.00
H2       1.10824    0.33676    0.48547   1.00
C5       1.07453    0.32609    0.43296   1.00
H2       1.06507    0.36714    0.47931   1.00
C5       1.24017    0.54212    0.38039   1.00
H2       1.26215    0.56125    0.36599   1.00
H2       1.21952    0.56164    0.39619   1.00
C5       1.21800    0.51754    0.35002   1.00
C5       1.20225    0.54408    0.31738   1.00
H2       1.44286    0.42090    0.67018   1.00
C5       1.43912    0.46885    0.71270   1.00
H2       1.39323    0.42997    0.69027   1.00
C5       1.28337    0.73105    0.51400   1.00
H2       1.25551    0.70505    0.56565   1.00
H2       1.30293    0.68272    0.55144   1.00
C5       1.05497    0.29095    0.45297   1.00
H2       1.05211    0.34215    0.41437   1.00
H2       1.09937    0.31541    0.41359   1.00
H2       1.18602    0.56979    0.33086   1.00
H2       1.22761    0.55536    0.29906   1.00
C5       1.17417    0.52066    0.29128   1.00
H2       1.45116    0.49723    0.70025   1.00
H2       1.41571    0.47570    0.73530   1.00
H2       1.46374    0.45172    0.72708   1.00
H2       1.26820    0.72737    0.48463   1.00
H2       1.27229    0.75870    0.52880   1.00
H2       1.31621    0.73339    0.50930   1.00
H2       1.03889    0.30124    0.48020   1.00
H2       1.03336    0.27686    0.43199   1.00
H2       1.07819    0.26873    0.46154   1.00
H2       1.14307    0.52413    0.30254   1.00
H2       1.17598    0.53200    0.26007   1.00
H2       1.18266    0.48852    0.29191   1.00
C5       0.88285    0.11782    0.45152   1.00
H2       0.90224    0.10255    0.43054   1.00
H2       0.86582    0.13910    0.43397   1.00
C5       0.85541    0.08806    0.47100   1.00
C5       0.82045    0.07877    0.44436   1.00
H2       0.84441    0.09985    0.49919   1.00
O3       0.96214    0.27000    0.55985   1.00
C4       1.00038    0.22900    0.49982   1.00
C3c      0.97123    0.20757    0.48057   1.00
H1       0.94822    0.22275    0.46524   1.00
C3d      1.03041    0.20865    0.51914   1.00
C3       0.97092    0.16646    0.48121   1.00
O2       0.94432    0.14752    0.45784   1.00
C3       1.02978    0.16773    0.52047   1.00
H1       1.05265    0.15343    0.53681   1.00
C2       1.00028    0.14561    0.50152   1.00
C5       0.98406    0.27121    0.59472   1.00
H2       0.98863    0.30162    0.60532   1.00
H2       1.01325    0.25734    0.59070   1.00
C5       0.96139    0.24871    0.62568   1.00
H2       0.95587    0.21863    0.61462   1.00
H2       0.93246    0.26302    0.62971   1.00
C5       0.98400    0.24738    0.66447   1.00
H2       0.98986    0.27732    0.67555   1.00
H2       1.01230    0.23189    0.66078   1.00
C5       0.95998    0.22555    0.69553   1.00
C5       1.08963    0.23895    0.51674   1.00
C5       0.91009    0.13930    0.47937   1.00
H2       1.08008    0.25912    0.49317   1.00
H2       1.10360    0.21288    0.50313   1.00
H2       0.89632    0.16700    0.48953   1.00
H2       0.91602    0.12105    0.50579   1.00
H2       0.87062    0.05970    0.47639   1.00
H2       1.13656    0.30753    0.50239   1.00
H2       1.16353    0.26237    0.49551   1.00
C2       1.00047    0.35395    0.50264   1.00
C3       1.01804    0.33403    0.47115   1.00
O2       1.04343    0.35326    0.44653   1.00
C3       0.98142    0.33174    0.53177   1.00
H1       0.96682    0.34615    0.55572   1.00
C3a      1.01711    0.29287    0.46998   1.00
H1       1.03261    0.27798    0.44688   1.00
C3b      0.98162    0.29078    0.53118   1.00
C4       0.99962    0.27100    0.50018   1.00
O3       1.05810    0.22833    0.54099   1.00
C5       1.02454    0.36280    0.41121   1.00
H2       1.01370    0.33609    0.39601   1.00
C5       1.05454    0.38326    0.38551   1.00
H2       0.99939    0.38274    0.41647   1.00
H2       1.07354    0.36068    0.37191   1.00
H2       1.07363    0.40093    0.40500   1.00
C5       1.03580    0.40918    0.35396   1.00
H2       1.01453    0.39176    0.33676   1.00
C5       1.06704    0.42547    0.32609   1.00
H2       1.02069    0.43493    0.36714   1.00
C5       1.11961    0.25983    0.54212   1.00
H2       1.13401    0.23785    0.56125   1.00
H2       1.10381    0.28048    0.56164   1.00
C5       1.14998    0.28200    0.51754   1.00
C5       1.18262    0.29775    0.54408   1.00
H2       0.82982    0.05714    0.42090   1.00
C5       0.78730    0.06088    0.46885   1.00
H2       0.80973    0.10677    0.42997   1.00
C5       0.98600    0.21663    0.73105   1.00
H2       0.93435    0.24449    0.70505   1.00
H2       0.94856    0.19707    0.68272   1.00
C5       1.04703    0.44503    0.29095   1.00
H2       1.08563    0.44789    0.34215   1.00
H2       1.08641    0.40063    0.31541   1.00
H2       1.16914    0.31398    0.56979   1.00
H2       1.20094    0.27239    0.55536   1.00
C5       1.20872    0.32583    0.52066   1.00
H2       0.79975    0.04884    0.49723   1.00
H2       0.76470    0.08429    0.47570   1.00
H2       0.77292    0.03626    0.45172   1.00
H2       1.01537    0.23180    0.72737   1.00
H2       0.97120    0.22771    0.75870   1.00
H2       0.99070    0.18379    0.73339   1.00
H2       1.01980    0.46111    0.30124   1.00
H2       1.06801    0.46664    0.27686   1.00
H2       1.03846    0.42181    0.26873   1.00
H2       1.19746    0.35693    0.52413   1.00
H2       1.23993    0.32402    0.53200   1.00
H2       1.20809    0.31734    0.48852   1.00
C5       0.95152    0.38285    0.11782   1.00
H2       0.93054    0.40224    0.10255   1.00
H2       0.93397    0.36582    0.13910   1.00
C5       0.97100    0.35541    0.08806   1.00
C5       0.94436    0.32045    0.07877   1.00
H2       0.99919    0.34441    0.09985   1.00
O3       1.05985    0.46214    0.27000   1.00
C4       0.99982    0.50038    0.22900   1.00
C3c      0.98057    0.47123    0.20757   1.00
H1       0.96524    0.44822    0.22275   1.00
C3d      1.01914    0.53041    0.20865   1.00
C3       0.98121    0.47092    0.16646   1.00
O2       0.95784    0.44432    0.14752   1.00
C3       1.02047    0.52978    0.16773   1.00
H1       1.03681    0.55265    0.15343   1.00
C2       1.00152    0.50028    0.14561   1.00
C5       1.09472    0.48406    0.27121   1.00
H2       1.10532    0.48863    0.30162   1.00
H2       1.09070    0.51325    0.25734   1.00
C5       1.12568    0.46139    0.24871   1.00
H2       1.11462    0.45587    0.21863   1.00
H2       1.12971    0.43246    0.26302   1.00
C5       1.16447    0.48400    0.24738   1.00
H2       1.17555    0.48986    0.27732   1.00
H2       1.16078    0.51230    0.23189   1.00
C5       1.19553    0.45998    0.22555   1.00
C5       1.01674    0.58963    0.23895   1.00
C5       0.97937    0.41009    0.13930   1.00
H2       0.99317    0.58008    0.25912   1.00
H2       1.00313    0.60360    0.21288   1.00
H2       0.98953    0.39632    0.16700   1.00
H2       1.00579    0.41602    0.12105   1.00
H2       0.97639    0.37062    0.05970   1.00
H2       1.00239    0.63656    0.30753   1.00
H2       0.99551    0.66353    0.26237   1.00
C2       1.00264    0.50047    0.35395   1.00
C3       0.97115    0.51804    0.33403   1.00
O2       0.94653    0.54343    0.35326   1.00
C3       1.03177    0.48142    0.33174   1.00
H1       1.05572    0.46682    0.34615   1.00
C3a      0.96998    0.51711    0.29287   1.00
H1       0.94688    0.53261    0.27798   1.00
C3b      1.03118    0.48162    0.29078   1.00
C4       1.00018    0.49962    0.27100   1.00
O3       1.04099    0.55810    0.22833   1.00
C5       0.91121    0.52454    0.36280   1.00
H2       0.89601    0.51370    0.33609   1.00
C5       0.88551    0.55454    0.38326   1.00
H2       0.91647    0.49939    0.38274   1.00
H2       0.87191    0.57354    0.36068   1.00
H2       0.90500    0.57363    0.40093   1.00
C5       0.85396    0.53580    0.40918   1.00
H2       0.83676    0.51453    0.39176   1.00
C5       0.82609    0.56704    0.42547   1.00
H2       0.86714    0.52069    0.43493   1.00
C5       1.04212    0.61961    0.25983   1.00
H2       1.06125    0.63401    0.23785   1.00
H2       1.06164    0.60381    0.28048   1.00
C5       1.01754    0.64998    0.28200   1.00
C5       1.04408    0.68262    0.29775   1.00
H2       0.92090    0.32982    0.05714   1.00
C5       0.96885    0.28730    0.06088   1.00
H2       0.92997    0.30973    0.10677   1.00
C5       1.23105    0.48600    0.21663   1.00
H2       1.20505    0.43435    0.24449   1.00
H2       1.18272    0.44856    0.19707   1.00
C5       0.79095    0.54703    0.44503   1.00
H2       0.84215    0.58563    0.44789   1.00
H2       0.81541    0.58641    0.40063   1.00
H2       1.06979    0.66914    0.31398   1.00
H2       1.05536    0.70094    0.27239   1.00
C5       1.02066    0.70872    0.32583   1.00
H2       0.99723    0.29975    0.04884   1.00
H2       0.97570    0.26470    0.08429   1.00
H2       0.95172    0.27292    0.03626   1.00
H2       1.22737    0.51537    0.23180   1.00
H2       1.25870    0.47120    0.22771   1.00
H2       1.23339    0.49070    0.18379   1.00
H2       0.80124    0.51980    0.46111   1.00
H2       0.77686    0.56801    0.46664   1.00
H2       0.76873    0.53846    0.42181   1.00
H2       1.02413    0.69746    0.35693   1.00
H2       1.03200    0.73993    0.32402   1.00
H2       0.98852    0.70809    0.31734   1.00
