data_IRMOF10_SG202_interpen_Ligand4lp_label_m.

_audit_creation_method             'generated by an auxiliary program of Tobunporous'

_symmetry_space_group_name_H-M     'P 1'
_symmetry_Int_Tables_number        1
_symmetry_cell_setting             triclinic

_cell_length_a                    34.2800
_cell_length_b                    34.2800
_cell_length_c                    34.2800
_cell_angle_alpha                 90.0000
_cell_angle_beta                  90.0000
_cell_angle_gamma                 90.0000

loop_
_atom_site_label
_atom_site_fract_x
_atom_site_fract_y
_atom_site_fract_z
_atom_site_occupancy
O1       0.75000    0.75000    0.75000   1.00
Zn1      0.71720    0.78280    0.78280   1.00
Zn1      0.78280    0.71720    0.78280   1.00
Zn1      0.78280    0.78280    0.71720   1.00
Zn1      0.71720    0.71720    0.71720   1.00
O2       0.72650    0.77350    0.83820   1.00
O2       0.72650    0.83820    0.77350   1.00
O2       0.66180    0.77350    0.77350   1.00
O2       0.77350    0.72650    0.83820   1.00
O2       0.83820    0.72650    0.77350   1.00
O2       0.77350    0.66180    0.77350   1.00
O2       0.77350    0.83820    0.72650   1.00
O2       0.83820    0.77350    0.72650   1.00
O2       0.77350    0.77350    0.66180   1.00
O2       0.66180    0.72650    0.72650   1.00
O2       0.72650    0.66180    0.72650   1.00
O2       0.72650    0.72650    0.66180   1.00
C1       0.75000    0.75000    0.85520   1.00
C1       0.75000    0.85520    0.75000   1.00
C1       0.64480    0.75000    0.75000   1.00
C1       0.85520    0.75000    0.75000   1.00
C1       0.75000    0.64480    0.75000   1.00
C1       0.75000    0.75000    0.64480   1.00
O1       0.25000    0.25000    0.75000   1.00
Zn1      0.21720    0.28280    0.78280   1.00
Zn1      0.28280    0.21720    0.78280   1.00
Zn1      0.28280    0.28280    0.71720   1.00
Zn1      0.21720    0.21720    0.71720   1.00
O2       0.22650    0.27350    0.83820   1.00
O2       0.22650    0.33820    0.77350   1.00
O2       0.16180    0.27350    0.77350   1.00
O2       0.27350    0.22650    0.83820   1.00
O2       0.33820    0.22650    0.77350   1.00
O2       0.27350    0.16180    0.77350   1.00
O2       0.27350    0.33820    0.72650   1.00
O2       0.33820    0.27350    0.72650   1.00
O2       0.27350    0.27350    0.66180   1.00
O2       0.16180    0.22650    0.72650   1.00
O2       0.22650    0.16180    0.72650   1.00
O2       0.22650    0.22650    0.66180   1.00
C1       0.25000    0.25000    0.85520   1.00
C1       0.25000    0.35520    0.75000   1.00
C1       0.14480    0.25000    0.75000   1.00
C1       0.35520    0.25000    0.75000   1.00
C1       0.25000    0.14480    0.75000   1.00
C1       0.25000    0.25000    0.64480   1.00
O1       0.25000    0.75000    0.25000   1.00
Zn1      0.21720    0.78280    0.28280   1.00
Zn1      0.28280    0.71720    0.28280   1.00
Zn1      0.28280    0.78280    0.21720   1.00
Zn1      0.21720    0.71720    0.21720   1.00
O2       0.22650    0.77350    0.33820   1.00
O2       0.22650    0.83820    0.27350   1.00
O2       0.16180    0.77350    0.27350   1.00
O2       0.27350    0.72650    0.33820   1.00
O2       0.33820    0.72650    0.27350   1.00
O2       0.27350    0.66180    0.27350   1.00
O2       0.27350    0.83820    0.22650   1.00
O2       0.33820    0.77350    0.22650   1.00
O2       0.27350    0.77350    0.16180   1.00
O2       0.16180    0.72650    0.22650   1.00
O2       0.22650    0.66180    0.22650   1.00
O2       0.22650    0.72650    0.16180   1.00
C1       0.25000    0.75000    0.35520   1.00
C1       0.25000    0.85520    0.25000   1.00
C1       0.14480    0.75000    0.25000   1.00
C1       0.35520    0.75000    0.25000   1.00
C1       0.25000    0.64480    0.25000   1.00
C1       0.25000    0.75000    0.14480   1.00
O1       0.75000    0.25000    0.25000   1.00
Zn1      0.71720    0.28280    0.28280   1.00
Zn1      0.78280    0.21720    0.28280   1.00
Zn1      0.78280    0.28280    0.21720   1.00
Zn1      0.71720    0.21720    0.21720   1.00
O2       0.72650    0.27350    0.33820   1.00
O2       0.72650    0.33820    0.27350   1.00
O2       0.66180    0.27350    0.27350   1.00
O2       0.77350    0.22650    0.33820   1.00
O2       0.83820    0.22650    0.27350   1.00
O2       0.77350    0.16180    0.27350   1.00
O2       0.77350    0.33820    0.22650   1.00
O2       0.83820    0.27350    0.22650   1.00
O2       0.77350    0.27350    0.16180   1.00
O2       0.66180    0.22650    0.22650   1.00
O2       0.72650    0.16180    0.22650   1.00
O2       0.72650    0.22650    0.16180   1.00
C1       0.75000    0.25000    0.35520   1.00
C1       0.75000    0.35520    0.25000   1.00
C1       0.64480    0.25000    0.25000   1.00
C1       0.85520    0.25000    0.25000   1.00
C1       0.75000    0.14480    0.25000   1.00
C1       0.75000    0.25000    0.14480   1.00
O1       0.25000    0.25000    0.25000   1.00
Zn1      0.28280    0.21720    0.21720   1.00
Zn1      0.21720    0.28280    0.21720   1.00
Zn1      0.21720    0.21720    0.28280   1.00
Zn1      0.28280    0.28280    0.28280   1.00
O2       0.27350    0.22650    0.16180   1.00
O2       0.27350    0.16180    0.22650   1.00
O2       0.33820    0.22650    0.22650   1.00
O2       0.22650    0.27350    0.16180   1.00
O2       0.16180    0.27350    0.22650   1.00
O2       0.22650    0.33820    0.22650   1.00
O2       0.22650    0.16180    0.27350   1.00
O2       0.16180    0.22650    0.27350   1.00
O2       0.22650    0.22650    0.33820   1.00
O2       0.33820    0.27350    0.27350   1.00
O2       0.27350    0.33820    0.27350   1.00
O2       0.27350    0.27350    0.33820   1.00
C1       0.25000    0.25000    0.14480   1.00
C1       0.25000    0.14480    0.25000   1.00
C1       0.35520    0.25000    0.25000   1.00
C1       0.14480    0.25000    0.25000   1.00
C1       0.25000    0.35520    0.25000   1.00
C1       0.25000    0.25000    0.35520   1.00
O1       0.75000    0.75000    0.25000   1.00
Zn1      0.78280    0.71720    0.21720   1.00
Zn1      0.71720    0.78280    0.21720   1.00
Zn1      0.71720    0.71720    0.28280   1.00
Zn1      0.78280    0.78280    0.28280   1.00
O2       0.77350    0.72650    0.16180   1.00
O2       0.77350    0.66180    0.22650   1.00
O2       0.83820    0.72650    0.22650   1.00
O2       0.72650    0.77350    0.16180   1.00
O2       0.66180    0.77350    0.22650   1.00
O2       0.72650    0.83820    0.22650   1.00
O2       0.72650    0.66180    0.27350   1.00
O2       0.66180    0.72650    0.27350   1.00
O2       0.72650    0.72650    0.33820   1.00
O2       0.83820    0.77350    0.27350   1.00
O2       0.77350    0.83820    0.27350   1.00
O2       0.77350    0.77350    0.33820   1.00
C1       0.75000    0.75000    0.14480   1.00
C1       0.75000    0.64480    0.25000   1.00
C1       0.85520    0.75000    0.25000   1.00
C1       0.64480    0.75000    0.25000   1.00
C1       0.75000    0.85520    0.25000   1.00
C1       0.75000    0.75000    0.35520   1.00
O1       0.75000    0.25000    0.75000   1.00
Zn1      0.78280    0.21720    0.71720   1.00
Zn1      0.71720    0.28280    0.71720   1.00
Zn1      0.71720    0.21720    0.78280   1.00
Zn1      0.78280    0.28280    0.78280   1.00
O2       0.77350    0.22650    0.66180   1.00
O2       0.77350    0.16180    0.72650   1.00
O2       0.83820    0.22650    0.72650   1.00
O2       0.72650    0.27350    0.66180   1.00
O2       0.66180    0.27350    0.72650   1.00
O2       0.72650    0.33820    0.72650   1.00
O2       0.72650    0.16180    0.77350   1.00
O2       0.66180    0.22650    0.77350   1.00
O2       0.72650    0.22650    0.83820   1.00
O2       0.83820    0.27350    0.77350   1.00
O2       0.77350    0.33820    0.77350   1.00
O2       0.77350    0.27350    0.83820   1.00
C1       0.75000    0.25000    0.64480   1.00
C1       0.75000    0.14480    0.75000   1.00
C1       0.85520    0.25000    0.75000   1.00
C1       0.64480    0.25000    0.75000   1.00
C1       0.75000    0.35520    0.75000   1.00
C1       0.75000    0.25000    0.85520   1.00
O1       0.25000    0.75000    0.75000   1.00
Zn1      0.28280    0.71720    0.71720   1.00
Zn1      0.21720    0.78280    0.71720   1.00
Zn1      0.21720    0.71720    0.78280   1.00
Zn1      0.28280    0.78280    0.78280   1.00
O2       0.27350    0.72650    0.66180   1.00
O2       0.27350    0.66180    0.72650   1.00
O2       0.33820    0.72650    0.72650   1.00
O2       0.22650    0.77350    0.66180   1.00
O2       0.16180    0.77350    0.72650   1.00
O2       0.22650    0.83820    0.72650   1.00
O2       0.22650    0.66180    0.77350   1.00
O2       0.16180    0.72650    0.77350   1.00
O2       0.22650    0.72650    0.83820   1.00
O2       0.33820    0.77350    0.77350   1.00
O2       0.27350    0.83820    0.77350   1.00
O2       0.27350    0.77350    0.83820   1.00
C1       0.25000    0.75000    0.64480   1.00
C1       0.25000    0.64480    0.75000   1.00
C1       0.35520    0.75000    0.75000   1.00
C1       0.14480    0.75000    0.75000   1.00
C1       0.25000    0.85520    0.75000   1.00
C1       0.25000    0.75000    0.85520   1.00
O1       1.00000    1.00000    1.00000   1.00
Zn1      0.96720    1.03280    1.03280   1.00
Zn1      1.03280    0.96720    1.03280   1.00
Zn1      1.03280    1.03280    0.96720   1.00
Zn1      0.96720    0.96720    0.96720   1.00
O2       0.97650    1.02350    1.08820   1.00
O2       0.97650    1.08820    1.02350   1.00
O2       0.91180    1.02350    1.02350   1.00
O2       1.02350    0.97650    1.08820   1.00
O2       1.08820    0.97650    1.02350   1.00
O2       1.02350    0.91180    1.02350   1.00
O2       1.02350    1.08820    0.97650   1.00
O2       1.08820    1.02350    0.97650   1.00
O2       1.02350    1.02350    0.91180   1.00
O2       0.91180    0.97650    0.97650   1.00
O2       0.97650    0.91180    0.97650   1.00
O2       0.97650    0.97650    0.91180   1.00
C1       1.00000    1.00000    1.10520   1.00
C1       1.00000    1.10520    1.00000   1.00
C1       0.89480    1.00000    1.00000   1.00
C1       1.10520    1.00000    1.00000   1.00
C1       1.00000    0.89480    1.00000   1.00
C1       1.00000    1.00000    0.89480   1.00
O1       0.50000    0.50000    1.00000   1.00
Zn1      0.46720    0.53280    1.03280   1.00
Zn1      0.53280    0.46720    1.03280   1.00
Zn1      0.53280    0.53280    0.96720   1.00
Zn1      0.46720    0.46720    0.96720   1.00
O2       0.47650    0.52350    1.08820   1.00
O2       0.47650    0.58820    1.02350   1.00
O2       0.41180    0.52350    1.02350   1.00
O2       0.52350    0.47650    1.08820   1.00
O2       0.58820    0.47650    1.02350   1.00
O2       0.52350    0.41180    1.02350   1.00
O2       0.52350    0.58820    0.97650   1.00
O2       0.58820    0.52350    0.97650   1.00
O2       0.52350    0.52350    0.91180   1.00
O2       0.41180    0.47650    0.97650   1.00
O2       0.47650    0.41180    0.97650   1.00
O2       0.47650    0.47650    0.91180   1.00
C1       0.50000    0.50000    1.10520   1.00
C1       0.50000    0.60520    1.00000   1.00
C1       0.39480    0.50000    1.00000   1.00
C1       0.60520    0.50000    1.00000   1.00
C1       0.50000    0.39480    1.00000   1.00
C1       0.50000    0.50000    0.89480   1.00
O1       0.50000    1.00000    0.50000   1.00
Zn1      0.46720    1.03280    0.53280   1.00
Zn1      0.53280    0.96720    0.53280   1.00
Zn1      0.53280    1.03280    0.46720   1.00
Zn1      0.46720    0.96720    0.46720   1.00
O2       0.47650    1.02350    0.58820   1.00
O2       0.47650    1.08820    0.52350   1.00
O2       0.41180    1.02350    0.52350   1.00
O2       0.52350    0.97650    0.58820   1.00
O2       0.58820    0.97650    0.52350   1.00
O2       0.52350    0.91180    0.52350   1.00
O2       0.52350    1.08820    0.47650   1.00
O2       0.58820    1.02350    0.47650   1.00
O2       0.52350    1.02350    0.41180   1.00
O2       0.41180    0.97650    0.47650   1.00
O2       0.47650    0.91180    0.47650   1.00
O2       0.47650    0.97650    0.41180   1.00
C1       0.50000    1.00000    0.60520   1.00
C1       0.50000    1.10520    0.50000   1.00
C1       0.39480    1.00000    0.50000   1.00
C1       0.60520    1.00000    0.50000   1.00
C1       0.50000    0.89480    0.50000   1.00
C1       0.50000    1.00000    0.39480   1.00
O1       1.00000    0.50000    0.50000   1.00
Zn1      0.96720    0.53280    0.53280   1.00
Zn1      1.03280    0.46720    0.53280   1.00
Zn1      1.03280    0.53280    0.46720   1.00
Zn1      0.96720    0.46720    0.46720   1.00
O2       0.97650    0.52350    0.58820   1.00
O2       0.97650    0.58820    0.52350   1.00
O2       0.91180    0.52350    0.52350   1.00
O2       1.02350    0.47650    0.58820   1.00
O2       1.08820    0.47650    0.52350   1.00
O2       1.02350    0.41180    0.52350   1.00
O2       1.02350    0.58820    0.47650   1.00
O2       1.08820    0.52350    0.47650   1.00
O2       1.02350    0.52350    0.41180   1.00
O2       0.91180    0.47650    0.47650   1.00
O2       0.97650    0.41180    0.47650   1.00
O2       0.97650    0.47650    0.41180   1.00
C1       1.00000    0.50000    0.60520   1.00
C1       1.00000    0.60520    0.50000   1.00
C1       0.89480    0.50000    0.50000   1.00
C1       1.10520    0.50000    0.50000   1.00
C1       1.00000    0.39480    0.50000   1.00
C1       1.00000    0.50000    0.39480   1.00
O1       0.50000    0.50000    0.50000   1.00
Zn1      0.53280    0.46720    0.46720   1.00
Zn1      0.46720    0.53280    0.46720   1.00
Zn1      0.46720    0.46720    0.53280   1.00
Zn1      0.53280    0.53280    0.53280   1.00
O2       0.52350    0.47650    0.41180   1.00
O2       0.52350    0.41180    0.47650   1.00
O2       0.58820    0.47650    0.47650   1.00
O2       0.47650    0.52350    0.41180   1.00
O2       0.41180    0.52350    0.47650   1.00
O2       0.47650    0.58820    0.47650   1.00
O2       0.47650    0.41180    0.52350   1.00
O2       0.41180    0.47650    0.52350   1.00
O2       0.47650    0.47650    0.58820   1.00
O2       0.58820    0.52350    0.52350   1.00
O2       0.52350    0.58820    0.52350   1.00
O2       0.52350    0.52350    0.58820   1.00
C1       0.50000    0.50000    0.39480   1.00
C1       0.50000    0.39480    0.50000   1.00
C1       0.60520    0.50000    0.50000   1.00
C1       0.39480    0.50000    0.50000   1.00
C1       0.50000    0.60520    0.50000   1.00
C1       0.50000    0.50000    0.60520   1.00
O1       1.00000    1.00000    0.50000   1.00
Zn1      1.03280    0.96720    0.46720   1.00
Zn1      0.96720    1.03280    0.46720   1.00
Zn1      0.96720    0.96720    0.53280   1.00
Zn1      1.03280    1.03280    0.53280   1.00
O2       1.02350    0.97650    0.41180   1.00
O2       1.02350    0.91180    0.47650   1.00
O2       1.08820    0.97650    0.47650   1.00
O2       0.97650    1.02350    0.41180   1.00
O2       0.91180    1.02350    0.47650   1.00
O2       0.97650    1.08820    0.47650   1.00
O2       0.97650    0.91180    0.52350   1.00
O2       0.91180    0.97650    0.52350   1.00
O2       0.97650    0.97650    0.58820   1.00
O2       1.08820    1.02350    0.52350   1.00
O2       1.02350    1.08820    0.52350   1.00
O2       1.02350    1.02350    0.58820   1.00
C1       1.00000    1.00000    0.39480   1.00
C1       1.00000    0.89480    0.50000   1.00
C1       1.10520    1.00000    0.50000   1.00
C1       0.89480    1.00000    0.50000   1.00
C1       1.00000    1.10520    0.50000   1.00
C1       1.00000    1.00000    0.60520   1.00
O1       1.00000    0.50000    1.00000   1.00
Zn1      1.03280    0.46720    0.96720   1.00
Zn1      0.96720    0.53280    0.96720   1.00
Zn1      0.96720    0.46720    1.03280   1.00
Zn1      1.03280    0.53280    1.03280   1.00
O2       1.02350    0.47650    0.91180   1.00
O2       1.02350    0.41180    0.97650   1.00
O2       1.08820    0.47650    0.97650   1.00
O2       0.97650    0.52350    0.91180   1.00
O2       0.91180    0.52350    0.97650   1.00
O2       0.97650    0.58820    0.97650   1.00
O2       0.97650    0.41180    1.02350   1.00
O2       0.91180    0.47650    1.02350   1.00
O2       0.97650    0.47650    1.08820   1.00
O2       1.08820    0.52350    1.02350   1.00
O2       1.02350    0.58820    1.02350   1.00
O2       1.02350    0.52350    1.08820   1.00
C1       1.00000    0.50000    0.89480   1.00
C1       1.00000    0.39480    1.00000   1.00
C1       1.10520    0.50000    1.00000   1.00
C1       0.89480    0.50000    1.00000   1.00
C1       1.00000    0.60520    1.00000   1.00
C1       1.00000    0.50000    1.10520   1.00
O1       0.50000    1.00000    1.00000   1.00
Zn1      0.53280    0.96720    0.96720   1.00
Zn1      0.46720    1.03280    0.96720   1.00
Zn1      0.46720    0.96720    1.03280   1.00
Zn1      0.53280    1.03280    1.03280   1.00
O2       0.52350    0.97650    0.91180   1.00
O2       0.52350    0.91180    0.97650   1.00
O2       0.58820    0.97650    0.97650   1.00
O2       0.47650    1.02350    0.91180   1.00
O2       0.41180    1.02350    0.97650   1.00
O2       0.47650    1.08820    0.97650   1.00
O2       0.47650    0.91180    1.02350   1.00
O2       0.41180    0.97650    1.02350   1.00
O2       0.47650    0.97650    1.08820   1.00
O2       0.58820    1.02350    1.02350   1.00
O2       0.52350    1.08820    1.02350   1.00
O2       0.52350    1.02350    1.08820   1.00
C1       0.50000    1.00000    0.89480   1.00
C1       0.50000    0.89480    1.00000   1.00
C1       0.60520    1.00000    1.00000   1.00
C1       0.39480    1.00000    1.00000   1.00
C1       0.50000    1.10520    1.00000   1.00
C1       0.50000    1.00000    1.10520   1.00
C4       0.74669    0.75346    0.98025   1.00
C4       0.74695    0.75499    1.02191   1.00
C3       0.71925    0.73058    0.95897   1.00
C3       0.71738    0.73711    1.04504   1.00
C3       0.77476    0.77542    0.95854   1.00
C3       0.77770    0.77509    1.04170   1.00
C2       0.74490    0.75185    0.89595   1.00
C2       0.74847    0.75642    1.10622   1.00
C3       0.71820    0.72990    0.91811   1.00
C3       0.71816    0.73759    1.08591   1.00
C3       0.77256    0.77411    0.91696   1.00
C3       0.77754    0.77472    1.08336   1.00
H1       0.69924    0.71325    0.97237   1.00
H1       0.69396    0.72339    1.03306   1.00
C5       0.80413    0.79771    0.97835   1.00
C5       0.80739    0.79504    1.01998   1.00
H1       0.69759    0.71293    0.90451   1.00
H1       0.69605    0.72401    1.10091   1.00
H1       0.79185    0.78954    0.90052   1.00
H1       0.79905    0.78846    1.09848   1.00
C6       0.83097    0.82404    0.95515   1.00
C6       0.84195    0.81261    1.04119   1.00
H2       0.81387    0.83978    0.93345   1.00
H2       0.85225    0.79200    1.06310   1.00
H2       0.84227    0.84780    0.97286   1.00
H2       0.86730    0.81505    1.02228   1.00
C6       0.86605    0.80173    0.93606   1.00
C6       0.83298    0.85359    1.05942   1.00
H2       0.85558    0.77461    0.92292   1.00
H2       0.80453    0.85287    1.07383   1.00
C6       0.89060    0.82395    0.90459   1.00
C6       0.86326    0.87058    1.08911   1.00
H2       0.88568    0.79267    0.95949   1.00
H2       0.82973    0.87437    1.03546   1.00
C6       0.86630    0.83245    0.86735   1.00
C6       0.86506    0.84599    1.12708   1.00
C6       0.90721    0.86277    0.92074   1.00
C6       0.90463    0.87321    1.07107   1.00
C6       0.92555    0.79778    0.89245   1.00
C6       0.85031    0.91247    1.10054   1.00
H2       0.85363    0.80568    0.85558   1.00
H2       0.83617    0.84304    1.14020   1.00
H2       0.84255    0.85270    0.87330   1.00
H2       0.87630    0.81679    1.12154   1.00
H2       0.88436    0.84549    0.84459   1.00
H2       0.88419    0.85954    1.14863   1.00
H2       0.92652    0.87664    0.89955   1.00
H2       0.92489    0.88764    1.09098   1.00
H2       0.88383    0.88333    0.92725   1.00
H2       0.91626    0.84425    1.06494   1.00
H2       0.92377    0.85771    0.94745   1.00
H2       0.90404    0.88970    1.04385   1.00
H2       0.91539    0.77008    0.88042   1.00
H2       0.82135    0.91221    1.11383   1.00
H2       0.94347    0.81197    0.87025   1.00
H2       0.87046    0.92551    1.12149   1.00
H2       0.94429    0.79140    0.91739   1.00
H2       0.84924    0.93149    1.07502   1.00
C4       0.75346    0.98025    0.74669   1.00
C4       0.75499    1.02191    0.74695   1.00
C3       0.73058    0.95897    0.71925   1.00
C3       0.73711    1.04504    0.71738   1.00
C3       0.77542    0.95854    0.77476   1.00
C3       0.77509    1.04170    0.77770   1.00
C2       0.75185    0.89595    0.74490   1.00
C2       0.75642    1.10622    0.74847   1.00
C3       0.72990    0.91811    0.71820   1.00
C3       0.73759    1.08591    0.71816   1.00
C3       0.77411    0.91696    0.77256   1.00
C3       0.77472    1.08336    0.77754   1.00
H1       0.71325    0.97237    0.69924   1.00
H1       0.72339    1.03306    0.69396   1.00
C5       0.79771    0.97835    0.80413   1.00
C5       0.79504    1.01998    0.80739   1.00
H1       0.71293    0.90451    0.69759   1.00
H1       0.72401    1.10091    0.69605   1.00
H1       0.78954    0.90052    0.79185   1.00
H1       0.78846    1.09848    0.79905   1.00
C6       0.82404    0.95515    0.83097   1.00
C6       0.81261    1.04119    0.84195   1.00
H2       0.83978    0.93345    0.81387   1.00
H2       0.79200    1.06310    0.85225   1.00
H2       0.84780    0.97286    0.84227   1.00
H2       0.81505    1.02228    0.86730   1.00
C6       0.80173    0.93606    0.86605   1.00
C6       0.85359    1.05942    0.83298   1.00
H2       0.77461    0.92292    0.85558   1.00
H2       0.85287    1.07383    0.80453   1.00
C6       0.82395    0.90459    0.89060   1.00
C6       0.87058    1.08911    0.86326   1.00
H2       0.79267    0.95949    0.88568   1.00
H2       0.87437    1.03546    0.82973   1.00
C6       0.83245    0.86735    0.86630   1.00
C6       0.84599    1.12708    0.86506   1.00
C6       0.86277    0.92074    0.90721   1.00
C6       0.87321    1.07107    0.90463   1.00
C6       0.79778    0.89245    0.92555   1.00
C6       0.91247    1.10054    0.85031   1.00
H2       0.80568    0.85558    0.85363   1.00
H2       0.84304    1.14020    0.83617   1.00
H2       0.85270    0.87330    0.84255   1.00
H2       0.81679    1.12154    0.87630   1.00
H2       0.84549    0.84459    0.88436   1.00
H2       0.85954    1.14863    0.88419   1.00
H2       0.87664    0.89955    0.92652   1.00
H2       0.88764    1.09098    0.92489   1.00
H2       0.88333    0.92725    0.88383   1.00
H2       0.84425    1.06494    0.91626   1.00
H2       0.85771    0.94745    0.92377   1.00
H2       0.88970    1.04385    0.90404   1.00
H2       0.77008    0.88042    0.91539   1.00
H2       0.91221    1.11383    0.82135   1.00
H2       0.81197    0.87025    0.94347   1.00
H2       0.92551    1.12149    0.87046   1.00
H2       0.79140    0.91739    0.94429   1.00
H2       0.93149    1.07502    0.84924   1.00
C4       0.51975    0.74669    0.74654   1.00
C4       0.47809    0.74695    0.74501   1.00
C3       0.54103    0.71925    0.76942   1.00
C3       0.45496    0.71738    0.76289   1.00
C3       0.54146    0.77476    0.72458   1.00
C3       0.45830    0.77770    0.72491   1.00
C2       0.60405    0.74490    0.74815   1.00
C2       0.39378    0.74847    0.74358   1.00
C3       0.58189    0.71820    0.77010   1.00
C3       0.41409    0.71816    0.76241   1.00
C3       0.58304    0.77256    0.72589   1.00
C3       0.41664    0.77754    0.72528   1.00
H1       0.52763    0.69924    0.78675   1.00
H1       0.46694    0.69396    0.77661   1.00
C5       0.52165    0.80413    0.70229   1.00
C5       0.48002    0.80739    0.70496   1.00
H1       0.59549    0.69759    0.78707   1.00
H1       0.39909    0.69605    0.77599   1.00
H1       0.59948    0.79185    0.71046   1.00
H1       0.40152    0.79905    0.71154   1.00
C6       0.54485    0.83097    0.67596   1.00
C6       0.45881    0.84195    0.68739   1.00
H2       0.56655    0.81387    0.66022   1.00
H2       0.43690    0.85225    0.70800   1.00
H2       0.52714    0.84227    0.65220   1.00
H2       0.47772    0.86730    0.68495   1.00
C6       0.56394    0.86605    0.69827   1.00
C6       0.44058    0.83298    0.64641   1.00
H2       0.57708    0.85558    0.72539   1.00
H2       0.42617    0.80453    0.64713   1.00
C6       0.59541    0.89060    0.67605   1.00
C6       0.41089    0.86326    0.62942   1.00
H2       0.54051    0.88568    0.70733   1.00
H2       0.46454    0.82973    0.62563   1.00
C6       0.63265    0.86630    0.66755   1.00
C6       0.37292    0.86506    0.65401   1.00
C6       0.57926    0.90721    0.63723   1.00
C6       0.42893    0.90463    0.62679   1.00
C6       0.60755    0.92555    0.70222   1.00
C6       0.39946    0.85031    0.58753   1.00
H2       0.64442    0.85363    0.69432   1.00
H2       0.35980    0.83617    0.65696   1.00
H2       0.62670    0.84255    0.64730   1.00
H2       0.37846    0.87630    0.68321   1.00
H2       0.65541    0.88436    0.65451   1.00
H2       0.35137    0.88419    0.64046   1.00
H2       0.60045    0.92652    0.62336   1.00
H2       0.40902    0.92489    0.61236   1.00
H2       0.57275    0.88383    0.61667   1.00
H2       0.43506    0.91626    0.65575   1.00
H2       0.55255    0.92377    0.64229   1.00
H2       0.45615    0.90404    0.61030   1.00
H2       0.61958    0.91539    0.72992   1.00
H2       0.38617    0.82135    0.58779   1.00
H2       0.62975    0.94347    0.68803   1.00
H2       0.37851    0.87046    0.57449   1.00
H2       0.58261    0.94429    0.70860   1.00
H2       0.42498    0.84924    0.56851   1.00
C4       0.98025    0.74669    0.75346   1.00
C4       1.02191    0.74695    0.75499   1.00
C3       0.95897    0.71925    0.73058   1.00
C3       1.04504    0.71738    0.73711   1.00
C3       0.95854    0.77476    0.77542   1.00
C3       1.04170    0.77770    0.77509   1.00
C2       0.89595    0.74490    0.75185   1.00
C2       1.10622    0.74847    0.75642   1.00
C3       0.91811    0.71820    0.72990   1.00
C3       1.08591    0.71816    0.73759   1.00
C3       0.91696    0.77256    0.77411   1.00
C3       1.08336    0.77754    0.77472   1.00
H1       0.97237    0.69924    0.71325   1.00
H1       1.03306    0.69396    0.72339   1.00
C5       0.97835    0.80413    0.79771   1.00
C5       1.01998    0.80739    0.79504   1.00
H1       0.90451    0.69759    0.71293   1.00
H1       1.10091    0.69605    0.72401   1.00
H1       0.90052    0.79185    0.78954   1.00
H1       1.09848    0.79905    0.78846   1.00
C6       0.95515    0.83097    0.82404   1.00
C6       1.04119    0.84195    0.81261   1.00
H2       0.93345    0.81387    0.83978   1.00
H2       1.06310    0.85225    0.79200   1.00
H2       0.97286    0.84227    0.84780   1.00
H2       1.02228    0.86730    0.81505   1.00
C6       0.93606    0.86605    0.80173   1.00
C6       1.05942    0.83298    0.85359   1.00
H2       0.92292    0.85558    0.77461   1.00
H2       1.07383    0.80453    0.85287   1.00
C6       0.90459    0.89060    0.82395   1.00
C6       1.08911    0.86326    0.87058   1.00
H2       0.95949    0.88568    0.79267   1.00
H2       1.03546    0.82973    0.87437   1.00
C6       0.86735    0.86630    0.83245   1.00
C6       1.12708    0.86506    0.84599   1.00
C6       0.92074    0.90721    0.86277   1.00
C6       1.07107    0.90463    0.87321   1.00
C6       0.89245    0.92555    0.79778   1.00
C6       1.10054    0.85031    0.91247   1.00
H2       0.85558    0.85363    0.80568   1.00
H2       1.14020    0.83617    0.84304   1.00
H2       0.87330    0.84255    0.85270   1.00
H2       1.12154    0.87630    0.81679   1.00
H2       0.84459    0.88436    0.84549   1.00
H2       1.14863    0.88419    0.85954   1.00
H2       0.89955    0.92652    0.87664   1.00
H2       1.09098    0.92489    0.88764   1.00
H2       0.92725    0.88383    0.88333   1.00
H2       1.06494    0.91626    0.84425   1.00
H2       0.94745    0.92377    0.85771   1.00
H2       1.04385    0.90404    0.88970   1.00
H2       0.88042    0.91539    0.77008   1.00
H2       1.11383    0.82135    0.91221   1.00
H2       0.87025    0.94347    0.81197   1.00
H2       1.12149    0.87046    0.92551   1.00
H2       0.91739    0.94429    0.79140   1.00
H2       1.07502    0.84924    0.93149   1.00
C4       0.74654    0.51975    0.74669   1.00
C4       0.74501    0.47809    0.74695   1.00
C3       0.76942    0.54103    0.71925   1.00
C3       0.76289    0.45496    0.71738   1.00
C3       0.72458    0.54146    0.77476   1.00
C3       0.72491    0.45830    0.77770   1.00
C2       0.74815    0.60405    0.74490   1.00
C2       0.74358    0.39378    0.74847   1.00
C3       0.77010    0.58189    0.71820   1.00
C3       0.76241    0.41409    0.71816   1.00
C3       0.72589    0.58304    0.77256   1.00
C3       0.72528    0.41664    0.77754   1.00
H1       0.78675    0.52763    0.69924   1.00
H1       0.77661    0.46694    0.69396   1.00
C5       0.70229    0.52165    0.80413   1.00
C5       0.70496    0.48002    0.80739   1.00
H1       0.78707    0.59549    0.69759   1.00
H1       0.77599    0.39909    0.69605   1.00
H1       0.71046    0.59948    0.79185   1.00
H1       0.71154    0.40152    0.79905   1.00
C6       0.67596    0.54485    0.83097   1.00
C6       0.68739    0.45881    0.84195   1.00
H2       0.66022    0.56655    0.81387   1.00
H2       0.70800    0.43690    0.85225   1.00
H2       0.65220    0.52714    0.84227   1.00
H2       0.68495    0.47772    0.86730   1.00
C6       0.69827    0.56394    0.86605   1.00
C6       0.64641    0.44058    0.83298   1.00
H2       0.72539    0.57708    0.85558   1.00
H2       0.64713    0.42617    0.80453   1.00
C6       0.67605    0.59541    0.89060   1.00
C6       0.62942    0.41089    0.86326   1.00
H2       0.70733    0.54051    0.88568   1.00
H2       0.62563    0.46454    0.82973   1.00
C6       0.66755    0.63265    0.86630   1.00
C6       0.65401    0.37292    0.86506   1.00
C6       0.63723    0.57926    0.90721   1.00
C6       0.62679    0.42893    0.90463   1.00
C6       0.70222    0.60755    0.92555   1.00
C6       0.58753    0.39946    0.85031   1.00
H2       0.69432    0.64442    0.85363   1.00
H2       0.65696    0.35980    0.83617   1.00
H2       0.64730    0.62670    0.84255   1.00
H2       0.68321    0.37846    0.87630   1.00
H2       0.65451    0.65541    0.88436   1.00
H2       0.64046    0.35137    0.88419   1.00
H2       0.62336    0.60045    0.92652   1.00
H2       0.61236    0.40902    0.92489   1.00
H2       0.61667    0.57275    0.88383   1.00
H2       0.65575    0.43506    0.91626   1.00
H2       0.64229    0.55255    0.92377   1.00
H2       0.61030    0.45615    0.90404   1.00
H2       0.72992    0.61958    0.91539   1.00
H2       0.58779    0.38617    0.82135   1.00
H2       0.68803    0.62975    0.94347   1.00
H2       0.57449    0.37851    0.87046   1.00
H2       0.70860    0.58261    0.94429   1.00
H2       0.56851    0.42498    0.84924   1.00
C4       0.74669    0.74654    0.51975   1.00
C4       0.74695    0.74501    0.47809   1.00
C3       0.71925    0.76942    0.54103   1.00
C3       0.71738    0.76289    0.45496   1.00
C3       0.77476    0.72458    0.54146   1.00
C3       0.77770    0.72491    0.45830   1.00
C2       0.74490    0.74815    0.60405   1.00
C2       0.74847    0.74358    0.39378   1.00
C3       0.71820    0.77010    0.58189   1.00
C3       0.71816    0.76241    0.41409   1.00
C3       0.77256    0.72589    0.58304   1.00
C3       0.77754    0.72528    0.41664   1.00
H1       0.69924    0.78675    0.52763   1.00
H1       0.69396    0.77661    0.46694   1.00
C5       0.80413    0.70229    0.52165   1.00
C5       0.80739    0.70496    0.48002   1.00
H1       0.69759    0.78707    0.59549   1.00
H1       0.69605    0.77599    0.39909   1.00
H1       0.79185    0.71046    0.59948   1.00
H1       0.79905    0.71154    0.40152   1.00
C6       0.83097    0.67596    0.54485   1.00
C6       0.84195    0.68739    0.45881   1.00
H2       0.81387    0.66022    0.56655   1.00
H2       0.85225    0.70800    0.43690   1.00
H2       0.84227    0.65220    0.52714   1.00
H2       0.86730    0.68495    0.47772   1.00
C6       0.86605    0.69827    0.56394   1.00
C6       0.83298    0.64641    0.44058   1.00
H2       0.85558    0.72539    0.57708   1.00
H2       0.80453    0.64713    0.42617   1.00
C6       0.89060    0.67605    0.59541   1.00
C6       0.86326    0.62942    0.41089   1.00
H2       0.88568    0.70733    0.54051   1.00
H2       0.82973    0.62563    0.46454   1.00
C6       0.86630    0.66755    0.63265   1.00
C6       0.86506    0.65401    0.37292   1.00
C6       0.90721    0.63723    0.57926   1.00
C6       0.90463    0.62679    0.42893   1.00
C6       0.92555    0.70222    0.60755   1.00
C6       0.85031    0.58753    0.39946   1.00
H2       0.85363    0.69432    0.64442   1.00
H2       0.83617    0.65696    0.35980   1.00
H2       0.84255    0.64730    0.62670   1.00
H2       0.87630    0.68321    0.37846   1.00
H2       0.88436    0.65451    0.65541   1.00
H2       0.88419    0.64046    0.35137   1.00
H2       0.92652    0.62336    0.60045   1.00
H2       0.92489    0.61236    0.40902   1.00
H2       0.88383    0.61667    0.57275   1.00
H2       0.91626    0.65575    0.43506   1.00
H2       0.92377    0.64229    0.55255   1.00
H2       0.90404    0.61030    0.45615   1.00
H2       0.91539    0.72992    0.61958   1.00
H2       0.82135    0.58779    0.38617   1.00
H2       0.94347    0.68803    0.62975   1.00
H2       0.87046    0.57449    0.37851   1.00
H2       0.94429    0.70860    0.58261   1.00
H2       0.84924    0.56851    0.42498   1.00
C4       0.24669    0.25346    0.98025   1.00
C4       0.24695    0.25499    1.02191   1.00
C3       0.21925    0.23058    0.95897   1.00
C3       0.21738    0.23711    1.04504   1.00
C3       0.27476    0.27542    0.95854   1.00
C3       0.27770    0.27509    1.04170   1.00
C2       0.24490    0.25185    0.89595   1.00
C2       0.24847    0.25642    1.10622   1.00
C3       0.21820    0.22990    0.91811   1.00
C3       0.21816    0.23759    1.08591   1.00
C3       0.27256    0.27411    0.91696   1.00
C3       0.27754    0.27472    1.08336   1.00
H1       0.19924    0.21325    0.97237   1.00
H1       0.19396    0.22339    1.03306   1.00
C5       0.30413    0.29771    0.97835   1.00
C5       0.30739    0.29504    1.01998   1.00
H1       0.19759    0.21293    0.90451   1.00
H1       0.19605    0.22401    1.10091   1.00
H1       0.29185    0.28954    0.90052   1.00
H1       0.29905    0.28846    1.09848   1.00
C6       0.33097    0.32404    0.95515   1.00
C6       0.34195    0.31261    1.04119   1.00
H2       0.31387    0.33978    0.93345   1.00
H2       0.35225    0.29200    1.06310   1.00
H2       0.34227    0.34780    0.97286   1.00
H2       0.36730    0.31505    1.02228   1.00
C6       0.36605    0.30173    0.93606   1.00
C6       0.33298    0.35359    1.05942   1.00
H2       0.35558    0.27461    0.92292   1.00
H2       0.30453    0.35287    1.07383   1.00
C6       0.39060    0.32395    0.90459   1.00
C6       0.36326    0.37058    1.08911   1.00
H2       0.38568    0.29267    0.95949   1.00
H2       0.32973    0.37437    1.03546   1.00
C6       0.36630    0.33245    0.86735   1.00
C6       0.36506    0.34599    1.12708   1.00
C6       0.40721    0.36277    0.92074   1.00
C6       0.40463    0.37321    1.07107   1.00
C6       0.42555    0.29778    0.89245   1.00
C6       0.35031    0.41247    1.10054   1.00
H2       0.35363    0.30568    0.85558   1.00
H2       0.33617    0.34304    1.14020   1.00
H2       0.34255    0.35270    0.87330   1.00
H2       0.37630    0.31679    1.12154   1.00
H2       0.38436    0.34549    0.84459   1.00
H2       0.38419    0.35954    1.14863   1.00
H2       0.42652    0.37664    0.89955   1.00
H2       0.42489    0.38764    1.09098   1.00
H2       0.38383    0.38333    0.92725   1.00
H2       0.41626    0.34425    1.06494   1.00
H2       0.42377    0.35771    0.94745   1.00
H2       0.40404    0.38970    1.04385   1.00
H2       0.41539    0.27008    0.88042   1.00
H2       0.32135    0.41221    1.11383   1.00
H2       0.44347    0.31197    0.87025   1.00
H2       0.37046    0.42551    1.12149   1.00
H2       0.44429    0.29140    0.91739   1.00
H2       0.34924    0.43149    1.07502   1.00
C4       0.25346    0.48025    0.74669   1.00
C4       0.25499    0.52191    0.74695   1.00
C3       0.23058    0.45897    0.71925   1.00
C3       0.23711    0.54504    0.71738   1.00
C3       0.27542    0.45854    0.77476   1.00
C3       0.27509    0.54170    0.77770   1.00
C2       0.25185    0.39595    0.74490   1.00
C2       0.25642    0.60622    0.74847   1.00
C3       0.22990    0.41811    0.71820   1.00
C3       0.23759    0.58591    0.71816   1.00
C3       0.27411    0.41696    0.77256   1.00
C3       0.27472    0.58336    0.77754   1.00
H1       0.21325    0.47237    0.69924   1.00
H1       0.22339    0.53306    0.69396   1.00
C5       0.29771    0.47835    0.80413   1.00
C5       0.29504    0.51998    0.80739   1.00
H1       0.21293    0.40451    0.69759   1.00
H1       0.22401    0.60091    0.69605   1.00
H1       0.28954    0.40052    0.79185   1.00
H1       0.28846    0.59848    0.79905   1.00
C6       0.32404    0.45515    0.83097   1.00
C6       0.31261    0.54119    0.84195   1.00
H2       0.33978    0.43345    0.81387   1.00
H2       0.29200    0.56310    0.85225   1.00
H2       0.34780    0.47286    0.84227   1.00
H2       0.31505    0.52228    0.86730   1.00
C6       0.30173    0.43606    0.86605   1.00
C6       0.35359    0.55942    0.83298   1.00
H2       0.27461    0.42292    0.85558   1.00
H2       0.35287    0.57383    0.80453   1.00
C6       0.32395    0.40459    0.89060   1.00
C6       0.37058    0.58911    0.86326   1.00
H2       0.29267    0.45949    0.88568   1.00
H2       0.37437    0.53546    0.82973   1.00
C6       0.33245    0.36735    0.86630   1.00
C6       0.34599    0.62708    0.86506   1.00
C6       0.36277    0.42074    0.90721   1.00
C6       0.37321    0.57107    0.90463   1.00
C6       0.29778    0.39245    0.92555   1.00
C6       0.41247    0.60054    0.85031   1.00
H2       0.30568    0.35558    0.85363   1.00
H2       0.34304    0.64020    0.83617   1.00
H2       0.35270    0.37330    0.84255   1.00
H2       0.31679    0.62154    0.87630   1.00
H2       0.34549    0.34459    0.88436   1.00
H2       0.35954    0.64863    0.88419   1.00
H2       0.37664    0.39955    0.92652   1.00
H2       0.38764    0.59098    0.92489   1.00
H2       0.38333    0.42725    0.88383   1.00
H2       0.34425    0.56494    0.91626   1.00
H2       0.35771    0.44745    0.92377   1.00
H2       0.38970    0.54385    0.90404   1.00
H2       0.27008    0.38042    0.91539   1.00
H2       0.41221    0.61383    0.82135   1.00
H2       0.31197    0.37025    0.94347   1.00
H2       0.42551    0.62149    0.87046   1.00
H2       0.29140    0.41739    0.94429   1.00
H2       0.43149    0.57502    0.84924   1.00
C4       0.01975    0.24669    0.74654   1.00
C4       -0.02191   0.24695    0.74501   1.00
C3       0.04103    0.21925    0.76942   1.00
C3       -0.04504   0.21738    0.76289   1.00
C3       0.04146    0.27476    0.72458   1.00
C3       -0.04170   0.27770    0.72491   1.00
C2       0.10405    0.24490    0.74815   1.00
C2       -0.10622   0.24847    0.74358   1.00
C3       0.08189    0.21820    0.77010   1.00
C3       -0.08591   0.21816    0.76241   1.00
C3       0.08304    0.27256    0.72589   1.00
C3       -0.08336   0.27754    0.72528   1.00
H1       0.02763    0.19924    0.78675   1.00
H1       -0.03306   0.19396    0.77661   1.00
C5       0.02165    0.30413    0.70229   1.00
C5       -0.01998   0.30739    0.70496   1.00
H1       0.09549    0.19759    0.78707   1.00
H1       -0.10091   0.19605    0.77599   1.00
H1       0.09948    0.29185    0.71046   1.00
H1       -0.09848   0.29905    0.71154   1.00
C6       0.04485    0.33097    0.67596   1.00
C6       -0.04119   0.34195    0.68739   1.00
H2       0.06655    0.31387    0.66022   1.00
H2       -0.06310   0.35225    0.70800   1.00
H2       0.02714    0.34227    0.65220   1.00
H2       -0.02228   0.36730    0.68495   1.00
C6       0.06394    0.36605    0.69827   1.00
C6       -0.05942   0.33298    0.64641   1.00
H2       0.07708    0.35558    0.72539   1.00
H2       -0.07383   0.30453    0.64713   1.00
C6       0.09541    0.39060    0.67605   1.00
C6       -0.08911   0.36326    0.62942   1.00
H2       0.04051    0.38568    0.70733   1.00
H2       -0.03546   0.32973    0.62563   1.00
C6       0.13265    0.36630    0.66755   1.00
C6       -0.12708   0.36506    0.65401   1.00
C6       0.07926    0.40721    0.63723   1.00
C6       -0.07107   0.40463    0.62679   1.00
C6       0.10755    0.42555    0.70222   1.00
C6       -0.10054   0.35031    0.58753   1.00
H2       0.14442    0.35363    0.69432   1.00
H2       -0.14020   0.33617    0.65696   1.00
H2       0.12670    0.34255    0.64730   1.00
H2       -0.12154   0.37630    0.68321   1.00
H2       0.15541    0.38436    0.65451   1.00
H2       -0.14863   0.38419    0.64046   1.00
H2       0.10045    0.42652    0.62336   1.00
H2       -0.09098   0.42489    0.61236   1.00
H2       0.07275    0.38383    0.61667   1.00
H2       -0.06494   0.41626    0.65575   1.00
H2       0.05255    0.42377    0.64229   1.00
H2       -0.04385   0.40404    0.61030   1.00
H2       0.11958    0.41539    0.72992   1.00
H2       -0.11383   0.32135    0.58779   1.00
H2       0.12975    0.44347    0.68803   1.00
H2       -0.12149   0.37046    0.57449   1.00
H2       0.08261    0.44429    0.70860   1.00
H2       -0.07502   0.34924    0.56851   1.00
C4       0.48025    0.24669    0.75346   1.00
C4       0.52191    0.24695    0.75499   1.00
C3       0.45897    0.21925    0.73058   1.00
C3       0.54504    0.21738    0.73711   1.00
C3       0.45854    0.27476    0.77542   1.00
C3       0.54170    0.27770    0.77509   1.00
C2       0.39595    0.24490    0.75185   1.00
C2       0.60622    0.24847    0.75642   1.00
C3       0.41811    0.21820    0.72990   1.00
C3       0.58591    0.21816    0.73759   1.00
C3       0.41696    0.27256    0.77411   1.00
C3       0.58336    0.27754    0.77472   1.00
H1       0.47237    0.19924    0.71325   1.00
H1       0.53306    0.19396    0.72339   1.00
C5       0.47835    0.30413    0.79771   1.00
C5       0.51998    0.30739    0.79504   1.00
H1       0.40451    0.19759    0.71293   1.00
H1       0.60091    0.19605    0.72401   1.00
H1       0.40052    0.29185    0.78954   1.00
H1       0.59848    0.29905    0.78846   1.00
C6       0.45515    0.33097    0.82404   1.00
C6       0.54119    0.34195    0.81261   1.00
H2       0.43345    0.31387    0.83978   1.00
H2       0.56310    0.35225    0.79200   1.00
H2       0.47286    0.34227    0.84780   1.00
H2       0.52228    0.36730    0.81505   1.00
C6       0.43606    0.36605    0.80173   1.00
C6       0.55942    0.33298    0.85359   1.00
H2       0.42292    0.35558    0.77461   1.00
H2       0.57383    0.30453    0.85287   1.00
C6       0.40459    0.39060    0.82395   1.00
C6       0.58911    0.36326    0.87058   1.00
H2       0.45949    0.38568    0.79267   1.00
H2       0.53546    0.32973    0.87437   1.00
C6       0.36735    0.36630    0.83245   1.00
C6       0.62708    0.36506    0.84599   1.00
C6       0.42074    0.40721    0.86277   1.00
C6       0.57107    0.40463    0.87321   1.00
C6       0.39245    0.42555    0.79778   1.00
C6       0.60054    0.35031    0.91247   1.00
H2       0.35558    0.35363    0.80568   1.00
H2       0.64020    0.33617    0.84304   1.00
H2       0.37330    0.34255    0.85270   1.00
H2       0.62154    0.37630    0.81679   1.00
H2       0.34459    0.38436    0.84549   1.00
H2       0.64863    0.38419    0.85954   1.00
H2       0.39955    0.42652    0.87664   1.00
H2       0.59098    0.42489    0.88764   1.00
H2       0.42725    0.38383    0.88333   1.00
H2       0.56494    0.41626    0.84425   1.00
H2       0.44745    0.42377    0.85771   1.00
H2       0.54385    0.40404    0.88970   1.00
H2       0.38042    0.41539    0.77008   1.00
H2       0.61383    0.32135    0.91221   1.00
H2       0.37025    0.44347    0.81197   1.00
H2       0.62149    0.37046    0.92551   1.00
H2       0.41739    0.44429    0.79140   1.00
H2       0.57502    0.34924    0.93149   1.00
C4       0.24654    0.01975    0.74669   1.00
C4       0.24501    -0.02191   0.74695   1.00
C3       0.26942    0.04103    0.71925   1.00
C3       0.26289    -0.04504   0.71738   1.00
C3       0.22458    0.04146    0.77476   1.00
C3       0.22491    -0.04170   0.77770   1.00
C2       0.24815    0.10405    0.74490   1.00
C2       0.24358    -0.10622   0.74847   1.00
C3       0.27010    0.08189    0.71820   1.00
C3       0.26241    -0.08591   0.71816   1.00
C3       0.22589    0.08304    0.77256   1.00
C3       0.22528    -0.08336   0.77754   1.00
H1       0.28675    0.02763    0.69924   1.00
H1       0.27661    -0.03306   0.69396   1.00
C5       0.20229    0.02165    0.80413   1.00
C5       0.20496    -0.01998   0.80739   1.00
H1       0.28707    0.09549    0.69759   1.00
H1       0.27599    -0.10091   0.69605   1.00
H1       0.21046    0.09948    0.79185   1.00
H1       0.21154    -0.09848   0.79905   1.00
C6       0.17596    0.04485    0.83097   1.00
C6       0.18739    -0.04119   0.84195   1.00
H2       0.16022    0.06655    0.81387   1.00
H2       0.20800    -0.06310   0.85225   1.00
H2       0.15220    0.02714    0.84227   1.00
H2       0.18495    -0.02228   0.86730   1.00
C6       0.19827    0.06394    0.86605   1.00
C6       0.14641    -0.05942   0.83298   1.00
H2       0.22539    0.07708    0.85558   1.00
H2       0.14713    -0.07383   0.80453   1.00
C6       0.17605    0.09541    0.89060   1.00
C6       0.12942    -0.08911   0.86326   1.00
H2       0.20733    0.04051    0.88568   1.00
H2       0.12563    -0.03546   0.82973   1.00
C6       0.16755    0.13265    0.86630   1.00
C6       0.15401    -0.12708   0.86506   1.00
C6       0.13723    0.07926    0.90721   1.00
C6       0.12679    -0.07107   0.90463   1.00
C6       0.20222    0.10755    0.92555   1.00
C6       0.08753    -0.10054   0.85031   1.00
H2       0.19432    0.14442    0.85363   1.00
H2       0.15696    -0.14020   0.83617   1.00
H2       0.14730    0.12670    0.84255   1.00
H2       0.18321    -0.12154   0.87630   1.00
H2       0.15451    0.15541    0.88436   1.00
H2       0.14046    -0.14863   0.88419   1.00
H2       0.12336    0.10045    0.92652   1.00
H2       0.11236    -0.09098   0.92489   1.00
H2       0.11667    0.07275    0.88383   1.00
H2       0.15575    -0.06494   0.91626   1.00
H2       0.14229    0.05255    0.92377   1.00
H2       0.11030    -0.04385   0.90404   1.00
H2       0.22992    0.11958    0.91539   1.00
H2       0.08779    -0.11383   0.82135   1.00
H2       0.18803    0.12975    0.94347   1.00
H2       0.07449    -0.12149   0.87046   1.00
H2       0.20860    0.08261    0.94429   1.00
H2       0.06851    -0.07502   0.84924   1.00
C4       0.24669    0.24654    0.51975   1.00
C4       0.24695    0.24501    0.47809   1.00
C3       0.21925    0.26942    0.54103   1.00
C3       0.21738    0.26289    0.45496   1.00
C3       0.27476    0.22458    0.54146   1.00
C3       0.27770    0.22491    0.45830   1.00
C2       0.24490    0.24815    0.60405   1.00
C2       0.24847    0.24358    0.39378   1.00
C3       0.21820    0.27010    0.58189   1.00
C3       0.21816    0.26241    0.41409   1.00
C3       0.27256    0.22589    0.58304   1.00
C3       0.27754    0.22528    0.41664   1.00
H1       0.19924    0.28675    0.52763   1.00
H1       0.19396    0.27661    0.46694   1.00
C5       0.30413    0.20229    0.52165   1.00
C5       0.30739    0.20496    0.48002   1.00
H1       0.19759    0.28707    0.59549   1.00
H1       0.19605    0.27599    0.39909   1.00
H1       0.29185    0.21046    0.59948   1.00
H1       0.29905    0.21154    0.40152   1.00
C6       0.33097    0.17596    0.54485   1.00
C6       0.34195    0.18739    0.45881   1.00
H2       0.31387    0.16022    0.56655   1.00
H2       0.35225    0.20800    0.43690   1.00
H2       0.34227    0.15220    0.52714   1.00
H2       0.36730    0.18495    0.47772   1.00
C6       0.36605    0.19827    0.56394   1.00
C6       0.33298    0.14641    0.44058   1.00
H2       0.35558    0.22539    0.57708   1.00
H2       0.30453    0.14713    0.42617   1.00
C6       0.39060    0.17605    0.59541   1.00
C6       0.36326    0.12942    0.41089   1.00
H2       0.38568    0.20733    0.54051   1.00
H2       0.32973    0.12563    0.46454   1.00
C6       0.36630    0.16755    0.63265   1.00
C6       0.36506    0.15401    0.37292   1.00
C6       0.40721    0.13723    0.57926   1.00
C6       0.40463    0.12679    0.42893   1.00
C6       0.42555    0.20222    0.60755   1.00
C6       0.35031    0.08753    0.39946   1.00
H2       0.35363    0.19432    0.64442   1.00
H2       0.33617    0.15696    0.35980   1.00
H2       0.34255    0.14730    0.62670   1.00
H2       0.37630    0.18321    0.37846   1.00
H2       0.38436    0.15451    0.65541   1.00
H2       0.38419    0.14046    0.35137   1.00
H2       0.42652    0.12336    0.60045   1.00
H2       0.42489    0.11236    0.40902   1.00
H2       0.38383    0.11667    0.57275   1.00
H2       0.41626    0.15575    0.43506   1.00
H2       0.42377    0.14229    0.55255   1.00
H2       0.40404    0.11030    0.45615   1.00
H2       0.41539    0.22992    0.61958   1.00
H2       0.32135    0.08779    0.38617   1.00
H2       0.44347    0.18803    0.62975   1.00
H2       0.37046    0.07449    0.37851   1.00
H2       0.44429    0.20860    0.58261   1.00
H2       0.34924    0.06851    0.42498   1.00
C4       0.24669    0.75346    0.48025   1.00
C4       0.24695    0.75499    0.52191   1.00
C3       0.21925    0.73058    0.45897   1.00
C3       0.21738    0.73711    0.54504   1.00
C3       0.27476    0.77542    0.45854   1.00
C3       0.27770    0.77509    0.54170   1.00
C2       0.24490    0.75185    0.39595   1.00
C2       0.24847    0.75642    0.60622   1.00
C3       0.21820    0.72990    0.41811   1.00
C3       0.21816    0.73759    0.58591   1.00
C3       0.27256    0.77411    0.41696   1.00
C3       0.27754    0.77472    0.58336   1.00
H1       0.19924    0.71325    0.47237   1.00
H1       0.19396    0.72339    0.53306   1.00
C5       0.30413    0.79771    0.47835   1.00
C5       0.30739    0.79504    0.51998   1.00
H1       0.19759    0.71293    0.40451   1.00
H1       0.19605    0.72401    0.60091   1.00
H1       0.29185    0.78954    0.40052   1.00
H1       0.29905    0.78846    0.59848   1.00
C6       0.33097    0.82404    0.45515   1.00
C6       0.34195    0.81261    0.54119   1.00
H2       0.31387    0.83978    0.43345   1.00
H2       0.35225    0.79200    0.56310   1.00
H2       0.34227    0.84780    0.47286   1.00
H2       0.36730    0.81505    0.52228   1.00
C6       0.36605    0.80173    0.43606   1.00
C6       0.33298    0.85359    0.55942   1.00
H2       0.35558    0.77461    0.42292   1.00
H2       0.30453    0.85287    0.57383   1.00
C6       0.39060    0.82395    0.40459   1.00
C6       0.36326    0.87058    0.58911   1.00
H2       0.38568    0.79267    0.45949   1.00
H2       0.32973    0.87437    0.53546   1.00
C6       0.36630    0.83245    0.36735   1.00
C6       0.36506    0.84599    0.62708   1.00
C6       0.40721    0.86277    0.42074   1.00
C6       0.40463    0.87321    0.57107   1.00
C6       0.42555    0.79778    0.39245   1.00
C6       0.35031    0.91247    0.60054   1.00
H2       0.35363    0.80568    0.35558   1.00
H2       0.33617    0.84304    0.64020   1.00
H2       0.34255    0.85270    0.37330   1.00
H2       0.37630    0.81679    0.62154   1.00
H2       0.38436    0.84549    0.34459   1.00
H2       0.38419    0.85954    0.64863   1.00
H2       0.42652    0.87664    0.39955   1.00
H2       0.42489    0.88764    0.59098   1.00
H2       0.38383    0.88333    0.42725   1.00
H2       0.41626    0.84425    0.56494   1.00
H2       0.42377    0.85771    0.44745   1.00
H2       0.40404    0.88970    0.54385   1.00
H2       0.41539    0.77008    0.38042   1.00
H2       0.32135    0.91221    0.61383   1.00
H2       0.44347    0.81197    0.37025   1.00
H2       0.37046    0.92551    0.62149   1.00
H2       0.44429    0.79140    0.41739   1.00
H2       0.34924    0.93149    0.57502   1.00
C4       0.25346    0.98025    0.24669   1.00
C4       0.25499    1.02191    0.24695   1.00
C3       0.23058    0.95897    0.21925   1.00
C3       0.23711    1.04504    0.21738   1.00
C3       0.27542    0.95854    0.27476   1.00
C3       0.27509    1.04170    0.27770   1.00
C2       0.25185    0.89595    0.24490   1.00
C2       0.25642    1.10622    0.24847   1.00
C3       0.22990    0.91811    0.21820   1.00
C3       0.23759    1.08591    0.21816   1.00
C3       0.27411    0.91696    0.27256   1.00
C3       0.27472    1.08336    0.27754   1.00
H1       0.21325    0.97237    0.19924   1.00
H1       0.22339    1.03306    0.19396   1.00
C5       0.29771    0.97835    0.30413   1.00
C5       0.29504    1.01998    0.30739   1.00
H1       0.21293    0.90451    0.19759   1.00
H1       0.22401    1.10091    0.19605   1.00
H1       0.28954    0.90052    0.29185   1.00
H1       0.28846    1.09848    0.29905   1.00
C6       0.32404    0.95515    0.33097   1.00
C6       0.31261    1.04119    0.34195   1.00
H2       0.33978    0.93345    0.31387   1.00
H2       0.29200    1.06310    0.35225   1.00
H2       0.34780    0.97286    0.34227   1.00
H2       0.31505    1.02228    0.36730   1.00
C6       0.30173    0.93606    0.36605   1.00
C6       0.35359    1.05942    0.33298   1.00
H2       0.27461    0.92292    0.35558   1.00
H2       0.35287    1.07383    0.30453   1.00
C6       0.32395    0.90459    0.39060   1.00
C6       0.37058    1.08911    0.36326   1.00
H2       0.29267    0.95949    0.38568   1.00
H2       0.37437    1.03546    0.32973   1.00
C6       0.33245    0.86735    0.36630   1.00
C6       0.34599    1.12708    0.36506   1.00
C6       0.36277    0.92074    0.40721   1.00
C6       0.37321    1.07107    0.40463   1.00
C6       0.29778    0.89245    0.42555   1.00
C6       0.41247    1.10054    0.35031   1.00
H2       0.30568    0.85558    0.35363   1.00
H2       0.34304    1.14020    0.33617   1.00
H2       0.35270    0.87330    0.34255   1.00
H2       0.31679    1.12154    0.37630   1.00
H2       0.34549    0.84459    0.38436   1.00
H2       0.35954    1.14863    0.38419   1.00
H2       0.37664    0.89955    0.42652   1.00
H2       0.38764    1.09098    0.42489   1.00
H2       0.38333    0.92725    0.38383   1.00
H2       0.34425    1.06494    0.41626   1.00
H2       0.35771    0.94745    0.42377   1.00
H2       0.38970    1.04385    0.40404   1.00
H2       0.27008    0.88042    0.41539   1.00
H2       0.41221    1.11383    0.32135   1.00
H2       0.31197    0.87025    0.44347   1.00
H2       0.42551    1.12149    0.37046   1.00
H2       0.29140    0.91739    0.44429   1.00
H2       0.43149    1.07502    0.34924   1.00
C4       0.01975    0.74669    0.24654   1.00
C4       -0.02191   0.74695    0.24501   1.00
C3       0.04103    0.71925    0.26942   1.00
C3       -0.04504   0.71738    0.26289   1.00
C3       0.04146    0.77476    0.22458   1.00
C3       -0.04170   0.77770    0.22491   1.00
C2       0.10405    0.74490    0.24815   1.00
C2       -0.10622   0.74847    0.24358   1.00
C3       0.08189    0.71820    0.27010   1.00
C3       -0.08591   0.71816    0.26241   1.00
C3       0.08304    0.77256    0.22589   1.00
C3       -0.08336   0.77754    0.22528   1.00
H1       0.02763    0.69924    0.28675   1.00
H1       -0.03306   0.69396    0.27661   1.00
C5       0.02165    0.80413    0.20229   1.00
C5       -0.01998   0.80739    0.20496   1.00
H1       0.09549    0.69759    0.28707   1.00
H1       -0.10091   0.69605    0.27599   1.00
H1       0.09948    0.79185    0.21046   1.00
H1       -0.09848   0.79905    0.21154   1.00
C6       0.04485    0.83097    0.17596   1.00
C6       -0.04119   0.84195    0.18739   1.00
H2       0.06655    0.81387    0.16022   1.00
H2       -0.06310   0.85225    0.20800   1.00
H2       0.02714    0.84227    0.15220   1.00
H2       -0.02228   0.86730    0.18495   1.00
C6       0.06394    0.86605    0.19827   1.00
C6       -0.05942   0.83298    0.14641   1.00
H2       0.07708    0.85558    0.22539   1.00
H2       -0.07383   0.80453    0.14713   1.00
C6       0.09541    0.89060    0.17605   1.00
C6       -0.08911   0.86326    0.12942   1.00
H2       0.04051    0.88568    0.20733   1.00
H2       -0.03546   0.82973    0.12563   1.00
C6       0.13265    0.86630    0.16755   1.00
C6       -0.12708   0.86506    0.15401   1.00
C6       0.07926    0.90721    0.13723   1.00
C6       -0.07107   0.90463    0.12679   1.00
C6       0.10755    0.92555    0.20222   1.00
C6       -0.10054   0.85031    0.08753   1.00
H2       0.14442    0.85363    0.19432   1.00
H2       -0.14020   0.83617    0.15696   1.00
H2       0.12670    0.84255    0.14730   1.00
H2       -0.12154   0.87630    0.18321   1.00
H2       0.15541    0.88436    0.15451   1.00
H2       -0.14863   0.88419    0.14046   1.00
H2       0.10045    0.92652    0.12336   1.00
H2       -0.09098   0.92489    0.11236   1.00
H2       0.07275    0.88383    0.11667   1.00
H2       -0.06494   0.91626    0.15575   1.00
H2       0.05255    0.92377    0.14229   1.00
H2       -0.04385   0.90404    0.11030   1.00
H2       0.11958    0.91539    0.22992   1.00
H2       -0.11383   0.82135    0.08779   1.00
H2       0.12975    0.94347    0.18803   1.00
H2       -0.12149   0.87046    0.07449   1.00
H2       0.08261    0.94429    0.20860   1.00
H2       -0.07502   0.84924    0.06851   1.00
C4       0.48025    0.74669    0.25346   1.00
C4       0.52191    0.74695    0.25499   1.00
C3       0.45897    0.71925    0.23058   1.00
C3       0.54504    0.71738    0.23711   1.00
C3       0.45854    0.77476    0.27542   1.00
C3       0.54170    0.77770    0.27509   1.00
C2       0.39595    0.74490    0.25185   1.00
C2       0.60622    0.74847    0.25642   1.00
C3       0.41811    0.71820    0.22990   1.00
C3       0.58591    0.71816    0.23759   1.00
C3       0.41696    0.77256    0.27411   1.00
C3       0.58336    0.77754    0.27472   1.00
H1       0.47237    0.69924    0.21325   1.00
H1       0.53306    0.69396    0.22339   1.00
C5       0.47835    0.80413    0.29771   1.00
C5       0.51998    0.80739    0.29504   1.00
H1       0.40451    0.69759    0.21293   1.00
H1       0.60091    0.69605    0.22401   1.00
H1       0.40052    0.79185    0.28954   1.00
H1       0.59848    0.79905    0.28846   1.00
C6       0.45515    0.83097    0.32404   1.00
C6       0.54119    0.84195    0.31261   1.00
H2       0.43345    0.81387    0.33978   1.00
H2       0.56310    0.85225    0.29200   1.00
H2       0.47286    0.84227    0.34780   1.00
H2       0.52228    0.86730    0.31505   1.00
C6       0.43606    0.86605    0.30173   1.00
C6       0.55942    0.83298    0.35359   1.00
H2       0.42292    0.85558    0.27461   1.00
H2       0.57383    0.80453    0.35287   1.00
C6       0.40459    0.89060    0.32395   1.00
C6       0.58911    0.86326    0.37058   1.00
H2       0.45949    0.88568    0.29267   1.00
H2       0.53546    0.82973    0.37437   1.00
C6       0.36735    0.86630    0.33245   1.00
C6       0.62708    0.86506    0.34599   1.00
C6       0.42074    0.90721    0.36277   1.00
C6       0.57107    0.90463    0.37321   1.00
C6       0.39245    0.92555    0.29778   1.00
C6       0.60054    0.85031    0.41247   1.00
H2       0.35558    0.85363    0.30568   1.00
H2       0.64020    0.83617    0.34304   1.00
H2       0.37330    0.84255    0.35270   1.00
H2       0.62154    0.87630    0.31679   1.00
H2       0.34459    0.88436    0.34549   1.00
H2       0.64863    0.88419    0.35954   1.00
H2       0.39955    0.92652    0.37664   1.00
H2       0.59098    0.92489    0.38764   1.00
H2       0.42725    0.88383    0.38333   1.00
H2       0.56494    0.91626    0.34425   1.00
H2       0.44745    0.92377    0.35771   1.00
H2       0.54385    0.90404    0.38970   1.00
H2       0.38042    0.91539    0.27008   1.00
H2       0.61383    0.82135    0.41221   1.00
H2       0.37025    0.94347    0.31197   1.00
H2       0.62149    0.87046    0.42551   1.00
H2       0.41739    0.94429    0.29140   1.00
H2       0.57502    0.84924    0.43149   1.00
C4       0.24654    0.51975    0.24669   1.00
C4       0.24501    0.47809    0.24695   1.00
C3       0.26942    0.54103    0.21925   1.00
C3       0.26289    0.45496    0.21738   1.00
C3       0.22458    0.54146    0.27476   1.00
C3       0.22491    0.45830    0.27770   1.00
C2       0.24815    0.60405    0.24490   1.00
C2       0.24358    0.39378    0.24847   1.00
C3       0.27010    0.58189    0.21820   1.00
C3       0.26241    0.41409    0.21816   1.00
C3       0.22589    0.58304    0.27256   1.00
C3       0.22528    0.41664    0.27754   1.00
H1       0.28675    0.52763    0.19924   1.00
H1       0.27661    0.46694    0.19396   1.00
C5       0.20229    0.52165    0.30413   1.00
C5       0.20496    0.48002    0.30739   1.00
H1       0.28707    0.59549    0.19759   1.00
H1       0.27599    0.39909    0.19605   1.00
H1       0.21046    0.59948    0.29185   1.00
H1       0.21154    0.40152    0.29905   1.00
C6       0.17596    0.54485    0.33097   1.00
C6       0.18739    0.45881    0.34195   1.00
H2       0.16022    0.56655    0.31387   1.00
H2       0.20800    0.43690    0.35225   1.00
H2       0.15220    0.52714    0.34227   1.00
H2       0.18495    0.47772    0.36730   1.00
C6       0.19827    0.56394    0.36605   1.00
C6       0.14641    0.44058    0.33298   1.00
H2       0.22539    0.57708    0.35558   1.00
H2       0.14713    0.42617    0.30453   1.00
C6       0.17605    0.59541    0.39060   1.00
C6       0.12942    0.41089    0.36326   1.00
H2       0.20733    0.54051    0.38568   1.00
H2       0.12563    0.46454    0.32973   1.00
C6       0.16755    0.63265    0.36630   1.00
C6       0.15401    0.37292    0.36506   1.00
C6       0.13723    0.57926    0.40721   1.00
C6       0.12679    0.42893    0.40463   1.00
C6       0.20222    0.60755    0.42555   1.00
C6       0.08753    0.39946    0.35031   1.00
H2       0.19432    0.64442    0.35363   1.00
H2       0.15696    0.35980    0.33617   1.00
H2       0.14730    0.62670    0.34255   1.00
H2       0.18321    0.37846    0.37630   1.00
H2       0.15451    0.65541    0.38436   1.00
H2       0.14046    0.35137    0.38419   1.00
H2       0.12336    0.60045    0.42652   1.00
H2       0.11236    0.40902    0.42489   1.00
H2       0.11667    0.57275    0.38383   1.00
H2       0.15575    0.43506    0.41626   1.00
H2       0.14229    0.55255    0.42377   1.00
H2       0.11030    0.45615    0.40404   1.00
H2       0.22992    0.61958    0.41539   1.00
H2       0.08779    0.38617    0.32135   1.00
H2       0.18803    0.62975    0.44347   1.00
H2       0.07449    0.37851    0.37046   1.00
H2       0.20860    0.58261    0.44429   1.00
H2       0.06851    0.42498    0.34924   1.00
C4       0.24669    0.74654    0.01975   1.00
C4       0.24695    0.74501    -0.02191   1.00
C3       0.21925    0.76942    0.04103   1.00
C3       0.21738    0.76289    -0.04504   1.00
C3       0.27476    0.72458    0.04146   1.00
C3       0.27770    0.72491    -0.04170   1.00
C2       0.24490    0.74815    0.10405   1.00
C2       0.24847    0.74358    -0.10622   1.00
C3       0.21820    0.77010    0.08189   1.00
C3       0.21816    0.76241    -0.08591   1.00
C3       0.27256    0.72589    0.08304   1.00
C3       0.27754    0.72528    -0.08336   1.00
H1       0.19924    0.78675    0.02763   1.00
H1       0.19396    0.77661    -0.03306   1.00
C5       0.30413    0.70229    0.02165   1.00
C5       0.30739    0.70496    -0.01998   1.00
H1       0.19759    0.78707    0.09549   1.00
H1       0.19605    0.77599    -0.10091   1.00
H1       0.29185    0.71046    0.09948   1.00
H1       0.29905    0.71154    -0.09848   1.00
C6       0.33097    0.67596    0.04485   1.00
C6       0.34195    0.68739    -0.04119   1.00
H2       0.31387    0.66022    0.06655   1.00
H2       0.35225    0.70800    -0.06310   1.00
H2       0.34227    0.65220    0.02714   1.00
H2       0.36730    0.68495    -0.02228   1.00
C6       0.36605    0.69827    0.06394   1.00
C6       0.33298    0.64641    -0.05942   1.00
H2       0.35558    0.72539    0.07708   1.00
H2       0.30453    0.64713    -0.07383   1.00
C6       0.39060    0.67605    0.09541   1.00
C6       0.36326    0.62942    -0.08911   1.00
H2       0.38568    0.70733    0.04051   1.00
H2       0.32973    0.62563    -0.03546   1.00
C6       0.36630    0.66755    0.13265   1.00
C6       0.36506    0.65401    -0.12708   1.00
C6       0.40721    0.63723    0.07926   1.00
C6       0.40463    0.62679    -0.07107   1.00
C6       0.42555    0.70222    0.10755   1.00
C6       0.35031    0.58753    -0.10054   1.00
H2       0.35363    0.69432    0.14442   1.00
H2       0.33617    0.65696    -0.14020   1.00
H2       0.34255    0.64730    0.12670   1.00
H2       0.37630    0.68321    -0.12154   1.00
H2       0.38436    0.65451    0.15541   1.00
H2       0.38419    0.64046    -0.14863   1.00
H2       0.42652    0.62336    0.10045   1.00
H2       0.42489    0.61236    -0.09098   1.00
H2       0.38383    0.61667    0.07275   1.00
H2       0.41626    0.65575    -0.06494   1.00
H2       0.42377    0.64229    0.05255   1.00
H2       0.40404    0.61030    -0.04385   1.00
H2       0.41539    0.72992    0.11958   1.00
H2       0.32135    0.58779    -0.11383   1.00
H2       0.44347    0.68803    0.12975   1.00
H2       0.37046    0.57449    -0.12149   1.00
H2       0.44429    0.70860    0.08261   1.00
H2       0.34924    0.56851    -0.07502   1.00
C4       0.74669    0.25346    0.48025   1.00
C4       0.74695    0.25499    0.52191   1.00
C3       0.71925    0.23058    0.45897   1.00
C3       0.71738    0.23711    0.54504   1.00
C3       0.77476    0.27542    0.45854   1.00
C3       0.77770    0.27509    0.54170   1.00
C2       0.74490    0.25185    0.39595   1.00
C2       0.74847    0.25642    0.60622   1.00
C3       0.71820    0.22990    0.41811   1.00
C3       0.71816    0.23759    0.58591   1.00
C3       0.77256    0.27411    0.41696   1.00
C3       0.77754    0.27472    0.58336   1.00
H1       0.69924    0.21325    0.47237   1.00
H1       0.69396    0.22339    0.53306   1.00
C5       0.80413    0.29771    0.47835   1.00
C5       0.80739    0.29504    0.51998   1.00
H1       0.69759    0.21293    0.40451   1.00
H1       0.69605    0.22401    0.60091   1.00
H1       0.79185    0.28954    0.40052   1.00
H1       0.79905    0.28846    0.59848   1.00
C6       0.83097    0.32404    0.45515   1.00
C6       0.84195    0.31261    0.54119   1.00
H2       0.81387    0.33978    0.43345   1.00
H2       0.85225    0.29200    0.56310   1.00
H2       0.84227    0.34780    0.47286   1.00
H2       0.86730    0.31505    0.52228   1.00
C6       0.86605    0.30173    0.43606   1.00
C6       0.83298    0.35359    0.55942   1.00
H2       0.85558    0.27461    0.42292   1.00
H2       0.80453    0.35287    0.57383   1.00
C6       0.89060    0.32395    0.40459   1.00
C6       0.86326    0.37058    0.58911   1.00
H2       0.88568    0.29267    0.45949   1.00
H2       0.82973    0.37437    0.53546   1.00
C6       0.86630    0.33245    0.36735   1.00
C6       0.86506    0.34599    0.62708   1.00
C6       0.90721    0.36277    0.42074   1.00
C6       0.90463    0.37321    0.57107   1.00
C6       0.92555    0.29778    0.39245   1.00
C6       0.85031    0.41247    0.60054   1.00
H2       0.85363    0.30568    0.35558   1.00
H2       0.83617    0.34304    0.64020   1.00
H2       0.84255    0.35270    0.37330   1.00
H2       0.87630    0.31679    0.62154   1.00
H2       0.88436    0.34549    0.34459   1.00
H2       0.88419    0.35954    0.64863   1.00
H2       0.92652    0.37664    0.39955   1.00
H2       0.92489    0.38764    0.59098   1.00
H2       0.88383    0.38333    0.42725   1.00
H2       0.91626    0.34425    0.56494   1.00
H2       0.92377    0.35771    0.44745   1.00
H2       0.90404    0.38970    0.54385   1.00
H2       0.91539    0.27008    0.38042   1.00
H2       0.82135    0.41221    0.61383   1.00
H2       0.94347    0.31197    0.37025   1.00
H2       0.87046    0.42551    0.62149   1.00
H2       0.94429    0.29140    0.41739   1.00
H2       0.84924    0.43149    0.57502   1.00
C4       0.75346    0.48025    0.24669   1.00
C4       0.75499    0.52191    0.24695   1.00
C3       0.73058    0.45897    0.21925   1.00
C3       0.73711    0.54504    0.21738   1.00
C3       0.77542    0.45854    0.27476   1.00
C3       0.77509    0.54170    0.27770   1.00
C2       0.75185    0.39595    0.24490   1.00
C2       0.75642    0.60622    0.24847   1.00
C3       0.72990    0.41811    0.21820   1.00
C3       0.73759    0.58591    0.21816   1.00
C3       0.77411    0.41696    0.27256   1.00
C3       0.77472    0.58336    0.27754   1.00
H1       0.71325    0.47237    0.19924   1.00
H1       0.72339    0.53306    0.19396   1.00
C5       0.79771    0.47835    0.30413   1.00
C5       0.79504    0.51998    0.30739   1.00
H1       0.71293    0.40451    0.19759   1.00
H1       0.72401    0.60091    0.19605   1.00
H1       0.78954    0.40052    0.29185   1.00
H1       0.78846    0.59848    0.29905   1.00
C6       0.82404    0.45515    0.33097   1.00
C6       0.81261    0.54119    0.34195   1.00
H2       0.83978    0.43345    0.31387   1.00
H2       0.79200    0.56310    0.35225   1.00
H2       0.84780    0.47286    0.34227   1.00
H2       0.81505    0.52228    0.36730   1.00
C6       0.80173    0.43606    0.36605   1.00
C6       0.85359    0.55942    0.33298   1.00
H2       0.77461    0.42292    0.35558   1.00
H2       0.85287    0.57383    0.30453   1.00
C6       0.82395    0.40459    0.39060   1.00
C6       0.87058    0.58911    0.36326   1.00
H2       0.79267    0.45949    0.38568   1.00
H2       0.87437    0.53546    0.32973   1.00
C6       0.83245    0.36735    0.36630   1.00
C6       0.84599    0.62708    0.36506   1.00
C6       0.86277    0.42074    0.40721   1.00
C6       0.87321    0.57107    0.40463   1.00
C6       0.79778    0.39245    0.42555   1.00
C6       0.91247    0.60054    0.35031   1.00
H2       0.80568    0.35558    0.35363   1.00
H2       0.84304    0.64020    0.33617   1.00
H2       0.85270    0.37330    0.34255   1.00
H2       0.81679    0.62154    0.37630   1.00
H2       0.84549    0.34459    0.38436   1.00
H2       0.85954    0.64863    0.38419   1.00
H2       0.87664    0.39955    0.42652   1.00
H2       0.88764    0.59098    0.42489   1.00
H2       0.88333    0.42725    0.38383   1.00
H2       0.84425    0.56494    0.41626   1.00
H2       0.85771    0.44745    0.42377   1.00
H2       0.88970    0.54385    0.40404   1.00
H2       0.77008    0.38042    0.41539   1.00
H2       0.91221    0.61383    0.32135   1.00
H2       0.81197    0.37025    0.44347   1.00
H2       0.92551    0.62149    0.37046   1.00
H2       0.79140    0.41739    0.44429   1.00
H2       0.93149    0.57502    0.34924   1.00
C4       0.51975    0.24669    0.24654   1.00
C4       0.47809    0.24695    0.24501   1.00
C3       0.54103    0.21925    0.26942   1.00
C3       0.45496    0.21738    0.26289   1.00
C3       0.54146    0.27476    0.22458   1.00
C3       0.45830    0.27770    0.22491   1.00
C2       0.60405    0.24490    0.24815   1.00
C2       0.39378    0.24847    0.24358   1.00
C3       0.58189    0.21820    0.27010   1.00
C3       0.41409    0.21816    0.26241   1.00
C3       0.58304    0.27256    0.22589   1.00
C3       0.41664    0.27754    0.22528   1.00
H1       0.52763    0.19924    0.28675   1.00
H1       0.46694    0.19396    0.27661   1.00
C5       0.52165    0.30413    0.20229   1.00
C5       0.48002    0.30739    0.20496   1.00
H1       0.59549    0.19759    0.28707   1.00
H1       0.39909    0.19605    0.27599   1.00
H1       0.59948    0.29185    0.21046   1.00
H1       0.40152    0.29905    0.21154   1.00
C6       0.54485    0.33097    0.17596   1.00
C6       0.45881    0.34195    0.18739   1.00
H2       0.56655    0.31387    0.16022   1.00
H2       0.43690    0.35225    0.20800   1.00
H2       0.52714    0.34227    0.15220   1.00
H2       0.47772    0.36730    0.18495   1.00
C6       0.56394    0.36605    0.19827   1.00
C6       0.44058    0.33298    0.14641   1.00
H2       0.57708    0.35558    0.22539   1.00
H2       0.42617    0.30453    0.14713   1.00
C6       0.59541    0.39060    0.17605   1.00
C6       0.41089    0.36326    0.12942   1.00
H2       0.54051    0.38568    0.20733   1.00
H2       0.46454    0.32973    0.12563   1.00
C6       0.63265    0.36630    0.16755   1.00
C6       0.37292    0.36506    0.15401   1.00
C6       0.57926    0.40721    0.13723   1.00
C6       0.42893    0.40463    0.12679   1.00
C6       0.60755    0.42555    0.20222   1.00
C6       0.39946    0.35031    0.08753   1.00
H2       0.64442    0.35363    0.19432   1.00
H2       0.35980    0.33617    0.15696   1.00
H2       0.62670    0.34255    0.14730   1.00
H2       0.37846    0.37630    0.18321   1.00
H2       0.65541    0.38436    0.15451   1.00
H2       0.35137    0.38419    0.14046   1.00
H2       0.60045    0.42652    0.12336   1.00
H2       0.40902    0.42489    0.11236   1.00
H2       0.57275    0.38383    0.11667   1.00
H2       0.43506    0.41626    0.15575   1.00
H2       0.55255    0.42377    0.14229   1.00
H2       0.45615    0.40404    0.11030   1.00
H2       0.61958    0.41539    0.22992   1.00
H2       0.38617    0.32135    0.08779   1.00
H2       0.62975    0.44347    0.18803   1.00
H2       0.37851    0.37046    0.07449   1.00
H2       0.58261    0.44429    0.20860   1.00
H2       0.42498    0.34924    0.06851   1.00
C4       0.98025    0.24669    0.25346   1.00
C4       1.02191    0.24695    0.25499   1.00
C3       0.95897    0.21925    0.23058   1.00
C3       1.04504    0.21738    0.23711   1.00
C3       0.95854    0.27476    0.27542   1.00
C3       1.04170    0.27770    0.27509   1.00
C2       0.89595    0.24490    0.25185   1.00
C2       1.10622    0.24847    0.25642   1.00
C3       0.91811    0.21820    0.22990   1.00
C3       1.08591    0.21816    0.23759   1.00
C3       0.91696    0.27256    0.27411   1.00
C3       1.08336    0.27754    0.27472   1.00
H1       0.97237    0.19924    0.21325   1.00
H1       1.03306    0.19396    0.22339   1.00
C5       0.97835    0.30413    0.29771   1.00
C5       1.01998    0.30739    0.29504   1.00
H1       0.90451    0.19759    0.21293   1.00
H1       1.10091    0.19605    0.22401   1.00
H1       0.90052    0.29185    0.28954   1.00
H1       1.09848    0.29905    0.28846   1.00
C6       0.95515    0.33097    0.32404   1.00
C6       1.04119    0.34195    0.31261   1.00
H2       0.93345    0.31387    0.33978   1.00
H2       1.06310    0.35225    0.29200   1.00
H2       0.97286    0.34227    0.34780   1.00
H2       1.02228    0.36730    0.31505   1.00
C6       0.93606    0.36605    0.30173   1.00
C6       1.05942    0.33298    0.35359   1.00
H2       0.92292    0.35558    0.27461   1.00
H2       1.07383    0.30453    0.35287   1.00
C6       0.90459    0.39060    0.32395   1.00
C6       1.08911    0.36326    0.37058   1.00
H2       0.95949    0.38568    0.29267   1.00
H2       1.03546    0.32973    0.37437   1.00
C6       0.86735    0.36630    0.33245   1.00
C6       1.12708    0.36506    0.34599   1.00
C6       0.92074    0.40721    0.36277   1.00
C6       1.07107    0.40463    0.37321   1.00
C6       0.89245    0.42555    0.29778   1.00
C6       1.10054    0.35031    0.41247   1.00
H2       0.85558    0.35363    0.30568   1.00
H2       1.14020    0.33617    0.34304   1.00
H2       0.87330    0.34255    0.35270   1.00
H2       1.12154    0.37630    0.31679   1.00
H2       0.84459    0.38436    0.34549   1.00
H2       1.14863    0.38419    0.35954   1.00
H2       0.89955    0.42652    0.37664   1.00
H2       1.09098    0.42489    0.38764   1.00
H2       0.92725    0.38383    0.38333   1.00
H2       1.06494    0.41626    0.34425   1.00
H2       0.94745    0.42377    0.35771   1.00
H2       1.04385    0.40404    0.38970   1.00
H2       0.88042    0.41539    0.27008   1.00
H2       1.11383    0.32135    0.41221   1.00
H2       0.87025    0.44347    0.31197   1.00
H2       1.12149    0.37046    0.42551   1.00
H2       0.91739    0.44429    0.29140   1.00
H2       1.07502    0.34924    0.43149   1.00
C4       0.74654    0.01975    0.24669   1.00
C4       0.74501    -0.02191   0.24695   1.00
C3       0.76942    0.04103    0.21925   1.00
C3       0.76289    -0.04504   0.21738   1.00
C3       0.72458    0.04146    0.27476   1.00
C3       0.72491    -0.04170   0.27770   1.00
C2       0.74815    0.10405    0.24490   1.00
C2       0.74358    -0.10622   0.24847   1.00
C3       0.77010    0.08189    0.21820   1.00
C3       0.76241    -0.08591   0.21816   1.00
C3       0.72589    0.08304    0.27256   1.00
C3       0.72528    -0.08336   0.27754   1.00
H1       0.78675    0.02763    0.19924   1.00
H1       0.77661    -0.03306   0.19396   1.00
C5       0.70229    0.02165    0.30413   1.00
C5       0.70496    -0.01998   0.30739   1.00
H1       0.78707    0.09549    0.19759   1.00
H1       0.77599    -0.10091   0.19605   1.00
H1       0.71046    0.09948    0.29185   1.00
H1       0.71154    -0.09848   0.29905   1.00
C6       0.67596    0.04485    0.33097   1.00
C6       0.68739    -0.04119   0.34195   1.00
H2       0.66022    0.06655    0.31387   1.00
H2       0.70800    -0.06310   0.35225   1.00
H2       0.65220    0.02714    0.34227   1.00
H2       0.68495    -0.02228   0.36730   1.00
C6       0.69827    0.06394    0.36605   1.00
C6       0.64641    -0.05942   0.33298   1.00
H2       0.72539    0.07708    0.35558   1.00
H2       0.64713    -0.07383   0.30453   1.00
C6       0.67605    0.09541    0.39060   1.00
C6       0.62942    -0.08911   0.36326   1.00
H2       0.70733    0.04051    0.38568   1.00
H2       0.62563    -0.03546   0.32973   1.00
C6       0.66755    0.13265    0.36630   1.00
C6       0.65401    -0.12708   0.36506   1.00
C6       0.63723    0.07926    0.40721   1.00
C6       0.62679    -0.07107   0.40463   1.00
C6       0.70222    0.10755    0.42555   1.00
C6       0.58753    -0.10054   0.35031   1.00
H2       0.69432    0.14442    0.35363   1.00
H2       0.65696    -0.14020   0.33617   1.00
H2       0.64730    0.12670    0.34255   1.00
H2       0.68321    -0.12154   0.37630   1.00
H2       0.65451    0.15541    0.38436   1.00
H2       0.64046    -0.14863   0.38419   1.00
H2       0.62336    0.10045    0.42652   1.00
H2       0.61236    -0.09098   0.42489   1.00
H2       0.61667    0.07275    0.38383   1.00
H2       0.65575    -0.06494   0.41626   1.00
H2       0.64229    0.05255    0.42377   1.00
H2       0.61030    -0.04385   0.40404   1.00
H2       0.72992    0.11958    0.41539   1.00
H2       0.58779    -0.11383   0.32135   1.00
H2       0.68803    0.12975    0.44347   1.00
H2       0.57449    -0.12149   0.37046   1.00
H2       0.70860    0.08261    0.44429   1.00
H2       0.56851    -0.07502   0.34924   1.00
C4       0.74669    0.24654    0.01975   1.00
C4       0.74695    0.24501    -0.02191   1.00
C3       0.71925    0.26942    0.04103   1.00
C3       0.71738    0.26289    -0.04504   1.00
C3       0.77476    0.22458    0.04146   1.00
C3       0.77770    0.22491    -0.04170   1.00
C2       0.74490    0.24815    0.10405   1.00
C2       0.74847    0.24358    -0.10622   1.00
C3       0.71820    0.27010    0.08189   1.00
C3       0.71816    0.26241    -0.08591   1.00
C3       0.77256    0.22589    0.08304   1.00
C3       0.77754    0.22528    -0.08336   1.00
H1       0.69924    0.28675    0.02763   1.00
H1       0.69396    0.27661    -0.03306   1.00
C5       0.80413    0.20229    0.02165   1.00
C5       0.80739    0.20496    -0.01998   1.00
H1       0.69759    0.28707    0.09549   1.00
H1       0.69605    0.27599    -0.10091   1.00
H1       0.79185    0.21046    0.09948   1.00
H1       0.79905    0.21154    -0.09848   1.00
C6       0.83097    0.17596    0.04485   1.00
C6       0.84195    0.18739    -0.04119   1.00
H2       0.81387    0.16022    0.06655   1.00
H2       0.85225    0.20800    -0.06310   1.00
H2       0.84227    0.15220    0.02714   1.00
H2       0.86730    0.18495    -0.02228   1.00
C6       0.86605    0.19827    0.06394   1.00
C6       0.83298    0.14641    -0.05942   1.00
H2       0.85558    0.22539    0.07708   1.00
H2       0.80453    0.14713    -0.07383   1.00
C6       0.89060    0.17605    0.09541   1.00
C6       0.86326    0.12942    -0.08911   1.00
H2       0.88568    0.20733    0.04051   1.00
H2       0.82973    0.12563    -0.03546   1.00
C6       0.86630    0.16755    0.13265   1.00
C6       0.86506    0.15401    -0.12708   1.00
C6       0.90721    0.13723    0.07926   1.00
C6       0.90463    0.12679    -0.07107   1.00
C6       0.92555    0.20222    0.10755   1.00
C6       0.85031    0.08753    -0.10054   1.00
H2       0.85363    0.19432    0.14442   1.00
H2       0.83617    0.15696    -0.14020   1.00
H2       0.84255    0.14730    0.12670   1.00
H2       0.87630    0.18321    -0.12154   1.00
H2       0.88436    0.15451    0.15541   1.00
H2       0.88419    0.14046    -0.14863   1.00
H2       0.92652    0.12336    0.10045   1.00
H2       0.92489    0.11236    -0.09098   1.00
H2       0.88383    0.11667    0.07275   1.00
H2       0.91626    0.15575    -0.06494   1.00
H2       0.92377    0.14229    0.05255   1.00
H2       0.90404    0.11030    -0.04385   1.00
H2       0.91539    0.22992    0.11958   1.00
H2       0.82135    0.08779    -0.11383   1.00
H2       0.94347    0.18803    0.12975   1.00
H2       0.87046    0.07449    -0.12149   1.00
H2       0.94429    0.20860    0.08261   1.00
H2       0.84924    0.06851    -0.07502   1.00
C4       0.99669    1.00346    1.23025   1.00
C4       0.99695    1.00499    1.27191   1.00
C3       0.96925    0.98058    1.20897   1.00
C3       0.96738    0.98711    1.29504   1.00
C3       1.02476    1.02542    1.20854   1.00
C3       1.02770    1.02509    1.29170   1.00
C2       0.99490    1.00185    1.14595   1.00
C2       0.99847    1.00642    1.35622   1.00
C3       0.96820    0.97990    1.16811   1.00
C3       0.96816    0.98759    1.33591   1.00
C3       1.02256    1.02411    1.16696   1.00
C3       1.02754    1.02472    1.33336   1.00
H1       0.94924    0.96325    1.22237   1.00
H1       0.94396    0.97339    1.28306   1.00
C5       1.05413    1.04771    1.22835   1.00
C5       1.05739    1.04504    1.26998   1.00
H1       0.94759    0.96293    1.15451   1.00
H1       0.94605    0.97401    1.35091   1.00
H1       1.04185    1.03954    1.15052   1.00
H1       1.04905    1.03846    1.34848   1.00
C6       1.08097    1.07404    1.20515   1.00
C6       1.09195    1.06261    1.29119   1.00
H2       1.06387    1.08978    1.18345   1.00
H2       1.10225    1.04200    1.31310   1.00
H2       1.09227    1.09780    1.22286   1.00
H2       1.11730    1.06505    1.27228   1.00
C6       1.11605    1.05173    1.18606   1.00
C6       1.08298    1.10359    1.30942   1.00
H2       1.10558    1.02461    1.17292   1.00
H2       1.05453    1.10287    1.32383   1.00
C6       1.14060    1.07395    1.15459   1.00
C6       1.11326    1.12058    1.33911   1.00
H2       1.13568    1.04267    1.20949   1.00
H2       1.07973    1.12437    1.28546   1.00
C6       1.11630    1.08245    1.11735   1.00
C6       1.11506    1.09599    1.37708   1.00
C6       1.15721    1.11277    1.17074   1.00
C6       1.15463    1.12321    1.32107   1.00
C6       1.17555    1.04778    1.14245   1.00
C6       1.10031    1.16247    1.35054   1.00
H2       1.10363    1.05568    1.10558   1.00
H2       1.08617    1.09304    1.39020   1.00
H2       1.09255    1.10270    1.12330   1.00
H2       1.12630    1.06679    1.37154   1.00
H2       1.13436    1.09549    1.09459   1.00
H2       1.13419    1.10954    1.39863   1.00
H2       1.17652    1.12664    1.14955   1.00
H2       1.17489    1.13764    1.34098   1.00
H2       1.13383    1.13333    1.17725   1.00
H2       1.16626    1.09425    1.31494   1.00
H2       1.17377    1.10771    1.19745   1.00
H2       1.15404    1.13970    1.29385   1.00
H2       1.16539    1.02008    1.13042   1.00
H2       1.07135    1.16221    1.36383   1.00
H2       1.19347    1.06197    1.12025   1.00
H2       1.12046    1.17551    1.37149   1.00
H2       1.19429    1.04140    1.16739   1.00
H2       1.09924    1.18149    1.32502   1.00
C4       1.00346    1.23025    0.99669   1.00
C4       1.00499    1.27191    0.99695   1.00
C3       0.98058    1.20897    0.96925   1.00
C3       0.98711    1.29504    0.96738   1.00
C3       1.02542    1.20854    1.02476   1.00
C3       1.02509    1.29170    1.02770   1.00
C2       1.00185    1.14595    0.99490   1.00
C2       1.00642    1.35622    0.99847   1.00
C3       0.97990    1.16811    0.96820   1.00
C3       0.98759    1.33591    0.96816   1.00
C3       1.02411    1.16696    1.02256   1.00
C3       1.02472    1.33336    1.02754   1.00
H1       0.96325    1.22237    0.94924   1.00
H1       0.97339    1.28306    0.94396   1.00
C5       1.04771    1.22835    1.05413   1.00
C5       1.04504    1.26998    1.05739   1.00
H1       0.96293    1.15451    0.94759   1.00
H1       0.97401    1.35091    0.94605   1.00
H1       1.03954    1.15052    1.04185   1.00
H1       1.03846    1.34848    1.04905   1.00
C6       1.07404    1.20515    1.08097   1.00
C6       1.06261    1.29119    1.09195   1.00
H2       1.08978    1.18345    1.06387   1.00
H2       1.04200    1.31310    1.10225   1.00
H2       1.09780    1.22286    1.09227   1.00
H2       1.06505    1.27228    1.11730   1.00
C6       1.05173    1.18606    1.11605   1.00
C6       1.10359    1.30942    1.08298   1.00
H2       1.02461    1.17292    1.10558   1.00
H2       1.10287    1.32383    1.05453   1.00
C6       1.07395    1.15459    1.14060   1.00
C6       1.12058    1.33911    1.11326   1.00
H2       1.04267    1.20949    1.13568   1.00
H2       1.12437    1.28546    1.07973   1.00
C6       1.08245    1.11735    1.11630   1.00
C6       1.09599    1.37708    1.11506   1.00
C6       1.11277    1.17074    1.15721   1.00
C6       1.12321    1.32107    1.15463   1.00
C6       1.04778    1.14245    1.17555   1.00
C6       1.16247    1.35054    1.10031   1.00
H2       1.05568    1.10558    1.10363   1.00
H2       1.09304    1.39020    1.08617   1.00
H2       1.10270    1.12330    1.09255   1.00
H2       1.06679    1.37154    1.12630   1.00
H2       1.09549    1.09459    1.13436   1.00
H2       1.10954    1.39863    1.13419   1.00
H2       1.12664    1.14955    1.17652   1.00
H2       1.13764    1.34098    1.17489   1.00
H2       1.13333    1.17725    1.13383   1.00
H2       1.09425    1.31494    1.16626   1.00
H2       1.10771    1.19745    1.17377   1.00
H2       1.13970    1.29385    1.15404   1.00
H2       1.02008    1.13042    1.16539   1.00
H2       1.16221    1.36383    1.07135   1.00
H2       1.06197    1.12025    1.19347   1.00
H2       1.17551    1.37149    1.12046   1.00
H2       1.04140    1.16739    1.19429   1.00
H2       1.18149    1.32502    1.09924   1.00
C4       0.76975    0.99669    0.99654   1.00
C4       0.72809    0.99695    0.99501   1.00
C3       0.79103    0.96925    1.01942   1.00
C3       0.70496    0.96738    1.01289   1.00
C3       0.79146    1.02476    0.97458   1.00
C3       0.70830    1.02770    0.97491   1.00
C2       0.85405    0.99490    0.99815   1.00
C2       0.64378    0.99847    0.99358   1.00
C3       0.83189    0.96820    1.02010   1.00
C3       0.66409    0.96816    1.01241   1.00
C3       0.83304    1.02256    0.97589   1.00
C3       0.66664    1.02754    0.97528   1.00
H1       0.77763    0.94924    1.03675   1.00
H1       0.71694    0.94396    1.02661   1.00
C5       0.77165    1.05413    0.95229   1.00
C5       0.73002    1.05739    0.95496   1.00
H1       0.84549    0.94759    1.03707   1.00
H1       0.64909    0.94605    1.02599   1.00
H1       0.84948    1.04185    0.96046   1.00
H1       0.65152    1.04905    0.96154   1.00
C6       0.79485    1.08097    0.92596   1.00
C6       0.70881    1.09195    0.93739   1.00
H2       0.81655    1.06387    0.91022   1.00
H2       0.68690    1.10225    0.95800   1.00
H2       0.77714    1.09227    0.90220   1.00
H2       0.72772    1.11730    0.93495   1.00
C6       0.81394    1.11605    0.94827   1.00
C6       0.69058    1.08298    0.89641   1.00
H2       0.82708    1.10558    0.97539   1.00
H2       0.67617    1.05453    0.89713   1.00
C6       0.84541    1.14060    0.92605   1.00
C6       0.66089    1.11326    0.87942   1.00
H2       0.79051    1.13568    0.95733   1.00
H2       0.71454    1.07973    0.87563   1.00
C6       0.88265    1.11630    0.91755   1.00
C6       0.62292    1.11506    0.90401   1.00
C6       0.82926    1.15721    0.88723   1.00
C6       0.67893    1.15463    0.87679   1.00
C6       0.85755    1.17555    0.95222   1.00
C6       0.64946    1.10031    0.83753   1.00
H2       0.89442    1.10363    0.94432   1.00
H2       0.60980    1.08617    0.90696   1.00
H2       0.87670    1.09255    0.89730   1.00
H2       0.62846    1.12630    0.93321   1.00
H2       0.90541    1.13436    0.90451   1.00
H2       0.60137    1.13419    0.89046   1.00
H2       0.85045    1.17652    0.87336   1.00
H2       0.65902    1.17489    0.86236   1.00
H2       0.82275    1.13383    0.86667   1.00
H2       0.68506    1.16626    0.90575   1.00
H2       0.80255    1.17377    0.89229   1.00
H2       0.70615    1.15404    0.86030   1.00
H2       0.86958    1.16539    0.97992   1.00
H2       0.63617    1.07135    0.83779   1.00
H2       0.87975    1.19347    0.93803   1.00
H2       0.62851    1.12046    0.82449   1.00
H2       0.83261    1.19429    0.95860   1.00
H2       0.67498    1.09924    0.81851   1.00
C4       1.23025    0.99669    1.00346   1.00
C4       1.27191    0.99695    1.00499   1.00
C3       1.20897    0.96925    0.98058   1.00
C3       1.29504    0.96738    0.98711   1.00
C3       1.20854    1.02476    1.02542   1.00
C3       1.29170    1.02770    1.02509   1.00
C2       1.14595    0.99490    1.00185   1.00
C2       1.35622    0.99847    1.00642   1.00
C3       1.16811    0.96820    0.97990   1.00
C3       1.33591    0.96816    0.98759   1.00
C3       1.16696    1.02256    1.02411   1.00
C3       1.33336    1.02754    1.02472   1.00
H1       1.22237    0.94924    0.96325   1.00
H1       1.28306    0.94396    0.97339   1.00
C5       1.22835    1.05413    1.04771   1.00
C5       1.26998    1.05739    1.04504   1.00
H1       1.15451    0.94759    0.96293   1.00
H1       1.35091    0.94605    0.97401   1.00
H1       1.15052    1.04185    1.03954   1.00
H1       1.34848    1.04905    1.03846   1.00
C6       1.20515    1.08097    1.07404   1.00
C6       1.29119    1.09195    1.06261   1.00
H2       1.18345    1.06387    1.08978   1.00
H2       1.31310    1.10225    1.04200   1.00
H2       1.22286    1.09227    1.09780   1.00
H2       1.27228    1.11730    1.06505   1.00
C6       1.18606    1.11605    1.05173   1.00
C6       1.30942    1.08298    1.10359   1.00
H2       1.17292    1.10558    1.02461   1.00
H2       1.32383    1.05453    1.10287   1.00
C6       1.15459    1.14060    1.07395   1.00
C6       1.33911    1.11326    1.12058   1.00
H2       1.20949    1.13568    1.04267   1.00
H2       1.28546    1.07973    1.12437   1.00
C6       1.11735    1.11630    1.08245   1.00
C6       1.37708    1.11506    1.09599   1.00
C6       1.17074    1.15721    1.11277   1.00
C6       1.32107    1.15463    1.12321   1.00
C6       1.14245    1.17555    1.04778   1.00
C6       1.35054    1.10031    1.16247   1.00
H2       1.10558    1.10363    1.05568   1.00
H2       1.39020    1.08617    1.09304   1.00
H2       1.12330    1.09255    1.10270   1.00
H2       1.37154    1.12630    1.06679   1.00
H2       1.09459    1.13436    1.09549   1.00
H2       1.39863    1.13419    1.10954   1.00
H2       1.14955    1.17652    1.12664   1.00
H2       1.34098    1.17489    1.13764   1.00
H2       1.17725    1.13383    1.13333   1.00
H2       1.31494    1.16626    1.09425   1.00
H2       1.19745    1.17377    1.10771   1.00
H2       1.29385    1.15404    1.13970   1.00
H2       1.13042    1.16539    1.02008   1.00
H2       1.36383    1.07135    1.16221   1.00
H2       1.12025    1.19347    1.06197   1.00
H2       1.37149    1.12046    1.17551   1.00
H2       1.16739    1.19429    1.04140   1.00
H2       1.32502    1.09924    1.18149   1.00
C4       0.99654    0.76975    0.99669   1.00
C4       0.99501    0.72809    0.99695   1.00
C3       1.01942    0.79103    0.96925   1.00
C3       1.01289    0.70496    0.96738   1.00
C3       0.97458    0.79146    1.02476   1.00
C3       0.97491    0.70830    1.02770   1.00
C2       0.99815    0.85405    0.99490   1.00
C2       0.99358    0.64378    0.99847   1.00
C3       1.02010    0.83189    0.96820   1.00
C3       1.01241    0.66409    0.96816   1.00
C3       0.97589    0.83304    1.02256   1.00
C3       0.97528    0.66664    1.02754   1.00
H1       1.03675    0.77763    0.94924   1.00
H1       1.02661    0.71694    0.94396   1.00
C5       0.95229    0.77165    1.05413   1.00
C5       0.95496    0.73002    1.05739   1.00
H1       1.03707    0.84549    0.94759   1.00
H1       1.02599    0.64909    0.94605   1.00
H1       0.96046    0.84948    1.04185   1.00
H1       0.96154    0.65152    1.04905   1.00
C6       0.92596    0.79485    1.08097   1.00
C6       0.93739    0.70881    1.09195   1.00
H2       0.91022    0.81655    1.06387   1.00
H2       0.95800    0.68690    1.10225   1.00
H2       0.90220    0.77714    1.09227   1.00
H2       0.93495    0.72772    1.11730   1.00
C6       0.94827    0.81394    1.11605   1.00
C6       0.89641    0.69058    1.08298   1.00
H2       0.97539    0.82708    1.10558   1.00
H2       0.89713    0.67617    1.05453   1.00
C6       0.92605    0.84541    1.14060   1.00
C6       0.87942    0.66089    1.11326   1.00
H2       0.95733    0.79051    1.13568   1.00
H2       0.87563    0.71454    1.07973   1.00
C6       0.91755    0.88265    1.11630   1.00
C6       0.90401    0.62292    1.11506   1.00
C6       0.88723    0.82926    1.15721   1.00
C6       0.87679    0.67893    1.15463   1.00
C6       0.95222    0.85755    1.17555   1.00
C6       0.83753    0.64946    1.10031   1.00
H2       0.94432    0.89442    1.10363   1.00
H2       0.90696    0.60980    1.08617   1.00
H2       0.89730    0.87670    1.09255   1.00
H2       0.93321    0.62846    1.12630   1.00
H2       0.90451    0.90541    1.13436   1.00
H2       0.89046    0.60137    1.13419   1.00
H2       0.87336    0.85045    1.17652   1.00
H2       0.86236    0.65902    1.17489   1.00
H2       0.86667    0.82275    1.13383   1.00
H2       0.90575    0.68506    1.16626   1.00
H2       0.89229    0.80255    1.17377   1.00
H2       0.86030    0.70615    1.15404   1.00
H2       0.97992    0.86958    1.16539   1.00
H2       0.83779    0.63617    1.07135   1.00
H2       0.93803    0.87975    1.19347   1.00
H2       0.82449    0.62851    1.12046   1.00
H2       0.95860    0.83261    1.19429   1.00
H2       0.81851    0.67498    1.09924   1.00
C4       0.99669    0.99654    0.76975   1.00
C4       0.99695    0.99501    0.72809   1.00
C3       0.96925    1.01942    0.79103   1.00
C3       0.96738    1.01289    0.70496   1.00
C3       1.02476    0.97458    0.79146   1.00
C3       1.02770    0.97491    0.70830   1.00
C2       0.99490    0.99815    0.85405   1.00
C2       0.99847    0.99358    0.64378   1.00
C3       0.96820    1.02010    0.83189   1.00
C3       0.96816    1.01241    0.66409   1.00
C3       1.02256    0.97589    0.83304   1.00
C3       1.02754    0.97528    0.66664   1.00
H1       0.94924    1.03675    0.77763   1.00
H1       0.94396    1.02661    0.71694   1.00
C5       1.05413    0.95229    0.77165   1.00
C5       1.05739    0.95496    0.73002   1.00
H1       0.94759    1.03707    0.84549   1.00
H1       0.94605    1.02599    0.64909   1.00
H1       1.04185    0.96046    0.84948   1.00
H1       1.04905    0.96154    0.65152   1.00
C6       1.08097    0.92596    0.79485   1.00
C6       1.09195    0.93739    0.70881   1.00
H2       1.06387    0.91022    0.81655   1.00
H2       1.10225    0.95800    0.68690   1.00
H2       1.09227    0.90220    0.77714   1.00
H2       1.11730    0.93495    0.72772   1.00
C6       1.11605    0.94827    0.81394   1.00
C6       1.08298    0.89641    0.69058   1.00
H2       1.10558    0.97539    0.82708   1.00
H2       1.05453    0.89713    0.67617   1.00
C6       1.14060    0.92605    0.84541   1.00
C6       1.11326    0.87942    0.66089   1.00
H2       1.13568    0.95733    0.79051   1.00
H2       1.07973    0.87563    0.71454   1.00
C6       1.11630    0.91755    0.88265   1.00
C6       1.11506    0.90401    0.62292   1.00
C6       1.15721    0.88723    0.82926   1.00
C6       1.15463    0.87679    0.67893   1.00
C6       1.17555    0.95222    0.85755   1.00
C6       1.10031    0.83753    0.64946   1.00
H2       1.10363    0.94432    0.89442   1.00
H2       1.08617    0.90696    0.60980   1.00
H2       1.09255    0.89730    0.87670   1.00
H2       1.12630    0.93321    0.62846   1.00
H2       1.13436    0.90451    0.90541   1.00
H2       1.13419    0.89046    0.60137   1.00
H2       1.17652    0.87336    0.85045   1.00
H2       1.17489    0.86236    0.65902   1.00
H2       1.13383    0.86667    0.82275   1.00
H2       1.16626    0.90575    0.68506   1.00
H2       1.17377    0.89229    0.80255   1.00
H2       1.15404    0.86030    0.70615   1.00
H2       1.16539    0.97992    0.86958   1.00
H2       1.07135    0.83779    0.63617   1.00
H2       1.19347    0.93803    0.87975   1.00
H2       1.12046    0.82449    0.62851   1.00
H2       1.19429    0.95860    0.83261   1.00
H2       1.09924    0.81851    0.67498   1.00
C4       0.49669    0.50346    1.23025   1.00
C4       0.49695    0.50499    1.27191   1.00
C3       0.46925    0.48058    1.20897   1.00
C3       0.46738    0.48711    1.29504   1.00
C3       0.52476    0.52542    1.20854   1.00
C3       0.52770    0.52509    1.29170   1.00
C2       0.49490    0.50185    1.14595   1.00
C2       0.49847    0.50642    1.35622   1.00
C3       0.46820    0.47990    1.16811   1.00
C3       0.46816    0.48759    1.33591   1.00
C3       0.52256    0.52411    1.16696   1.00
C3       0.52754    0.52472    1.33336   1.00
H1       0.44924    0.46325    1.22237   1.00
H1       0.44396    0.47339    1.28306   1.00
C5       0.55413    0.54771    1.22835   1.00
C5       0.55739    0.54504    1.26998   1.00
H1       0.44759    0.46293    1.15451   1.00
H1       0.44605    0.47401    1.35091   1.00
H1       0.54185    0.53954    1.15052   1.00
H1       0.54905    0.53846    1.34848   1.00
C6       0.58097    0.57404    1.20515   1.00
C6       0.59195    0.56261    1.29119   1.00
H2       0.56387    0.58978    1.18345   1.00
H2       0.60225    0.54200    1.31310   1.00
H2       0.59227    0.59780    1.22286   1.00
H2       0.61730    0.56505    1.27228   1.00
C6       0.61605    0.55173    1.18606   1.00
C6       0.58298    0.60359    1.30942   1.00
H2       0.60558    0.52461    1.17292   1.00
H2       0.55453    0.60287    1.32383   1.00
C6       0.64060    0.57395    1.15459   1.00
C6       0.61326    0.62058    1.33911   1.00
H2       0.63568    0.54267    1.20949   1.00
H2       0.57973    0.62437    1.28546   1.00
C6       0.61630    0.58245    1.11735   1.00
C6       0.61506    0.59599    1.37708   1.00
C6       0.65721    0.61277    1.17074   1.00
C6       0.65463    0.62321    1.32107   1.00
C6       0.67555    0.54778    1.14245   1.00
C6       0.60031    0.66247    1.35054   1.00
H2       0.60363    0.55568    1.10558   1.00
H2       0.58617    0.59304    1.39020   1.00
H2       0.59255    0.60270    1.12330   1.00
H2       0.62630    0.56679    1.37154   1.00
H2       0.63436    0.59549    1.09459   1.00
H2       0.63419    0.60954    1.39863   1.00
H2       0.67652    0.62664    1.14955   1.00
H2       0.67489    0.63764    1.34098   1.00
H2       0.63383    0.63333    1.17725   1.00
H2       0.66626    0.59425    1.31494   1.00
H2       0.67377    0.60771    1.19745   1.00
H2       0.65404    0.63970    1.29385   1.00
H2       0.66539    0.52008    1.13042   1.00
H2       0.57135    0.66221    1.36383   1.00
H2       0.69347    0.56197    1.12025   1.00
H2       0.62046    0.67551    1.37149   1.00
H2       0.69429    0.54140    1.16739   1.00
H2       0.59924    0.68149    1.32502   1.00
C4       0.50346    0.73025    0.99669   1.00
C4       0.50499    0.77191    0.99695   1.00
C3       0.48058    0.70897    0.96925   1.00
C3       0.48711    0.79504    0.96738   1.00
C3       0.52542    0.70854    1.02476   1.00
C3       0.52509    0.79170    1.02770   1.00
C2       0.50185    0.64595    0.99490   1.00
C2       0.50642    0.85622    0.99847   1.00
C3       0.47990    0.66811    0.96820   1.00
C3       0.48759    0.83591    0.96816   1.00
C3       0.52411    0.66696    1.02256   1.00
C3       0.52472    0.83336    1.02754   1.00
H1       0.46325    0.72237    0.94924   1.00
H1       0.47339    0.78306    0.94396   1.00
C5       0.54771    0.72835    1.05413   1.00
C5       0.54504    0.76998    1.05739   1.00
H1       0.46293    0.65451    0.94759   1.00
H1       0.47401    0.85091    0.94605   1.00
H1       0.53954    0.65052    1.04185   1.00
H1       0.53846    0.84848    1.04905   1.00
C6       0.57404    0.70515    1.08097   1.00
C6       0.56261    0.79119    1.09195   1.00
H2       0.58978    0.68345    1.06387   1.00
H2       0.54200    0.81310    1.10225   1.00
H2       0.59780    0.72286    1.09227   1.00
H2       0.56505    0.77228    1.11730   1.00
C6       0.55173    0.68606    1.11605   1.00
C6       0.60359    0.80942    1.08298   1.00
H2       0.52461    0.67292    1.10558   1.00
H2       0.60287    0.82383    1.05453   1.00
C6       0.57395    0.65459    1.14060   1.00
C6       0.62058    0.83911    1.11326   1.00
H2       0.54267    0.70949    1.13568   1.00
H2       0.62437    0.78546    1.07973   1.00
C6       0.58245    0.61735    1.11630   1.00
C6       0.59599    0.87708    1.11506   1.00
C6       0.61277    0.67074    1.15721   1.00
C6       0.62321    0.82107    1.15463   1.00
C6       0.54778    0.64245    1.17555   1.00
C6       0.66247    0.85054    1.10031   1.00
H2       0.55568    0.60558    1.10363   1.00
H2       0.59304    0.89020    1.08617   1.00
H2       0.60270    0.62330    1.09255   1.00
H2       0.56679    0.87154    1.12630   1.00
H2       0.59549    0.59459    1.13436   1.00
H2       0.60954    0.89863    1.13419   1.00
H2       0.62664    0.64955    1.17652   1.00
H2       0.63764    0.84098    1.17489   1.00
H2       0.63333    0.67725    1.13383   1.00
H2       0.59425    0.81494    1.16626   1.00
H2       0.60771    0.69745    1.17377   1.00
H2       0.63970    0.79385    1.15404   1.00
H2       0.52008    0.63042    1.16539   1.00
H2       0.66221    0.86383    1.07135   1.00
H2       0.56197    0.62025    1.19347   1.00
H2       0.67551    0.87149    1.12046   1.00
H2       0.54140    0.66739    1.19429   1.00
H2       0.68149    0.82502    1.09924   1.00
C4       0.26975    0.49669    0.99654   1.00
C4       0.22809    0.49695    0.99501   1.00
C3       0.29103    0.46925    1.01942   1.00
C3       0.20496    0.46738    1.01289   1.00
C3       0.29146    0.52476    0.97458   1.00
C3       0.20830    0.52770    0.97491   1.00
C2       0.35405    0.49490    0.99815   1.00
C2       0.14378    0.49847    0.99358   1.00
C3       0.33189    0.46820    1.02010   1.00
C3       0.16409    0.46816    1.01241   1.00
C3       0.33304    0.52256    0.97589   1.00
C3       0.16664    0.52754    0.97528   1.00
H1       0.27763    0.44924    1.03675   1.00
H1       0.21694    0.44396    1.02661   1.00
C5       0.27165    0.55413    0.95229   1.00
C5       0.23002    0.55739    0.95496   1.00
H1       0.34549    0.44759    1.03707   1.00
H1       0.14909    0.44605    1.02599   1.00
H1       0.34948    0.54185    0.96046   1.00
H1       0.15152    0.54905    0.96154   1.00
C6       0.29485    0.58097    0.92596   1.00
C6       0.20881    0.59195    0.93739   1.00
H2       0.31655    0.56387    0.91022   1.00
H2       0.18690    0.60225    0.95800   1.00
H2       0.27714    0.59227    0.90220   1.00
H2       0.22772    0.61730    0.93495   1.00
C6       0.31394    0.61605    0.94827   1.00
C6       0.19058    0.58298    0.89641   1.00
H2       0.32708    0.60558    0.97539   1.00
H2       0.17617    0.55453    0.89713   1.00
C6       0.34541    0.64060    0.92605   1.00
C6       0.16089    0.61326    0.87942   1.00
H2       0.29051    0.63568    0.95733   1.00
H2       0.21454    0.57973    0.87563   1.00
C6       0.38265    0.61630    0.91755   1.00
C6       0.12292    0.61506    0.90401   1.00
C6       0.32926    0.65721    0.88723   1.00
C6       0.17893    0.65463    0.87679   1.00
C6       0.35755    0.67555    0.95222   1.00
C6       0.14946    0.60031    0.83753   1.00
H2       0.39442    0.60363    0.94432   1.00
H2       0.10980    0.58617    0.90696   1.00
H2       0.37670    0.59255    0.89730   1.00
H2       0.12846    0.62630    0.93321   1.00
H2       0.40541    0.63436    0.90451   1.00
H2       0.10137    0.63419    0.89046   1.00
H2       0.35045    0.67652    0.87336   1.00
H2       0.15902    0.67489    0.86236   1.00
H2       0.32275    0.63383    0.86667   1.00
H2       0.18506    0.66626    0.90575   1.00
H2       0.30255    0.67377    0.89229   1.00
H2       0.20615    0.65404    0.86030   1.00
H2       0.36958    0.66539    0.97992   1.00
H2       0.13617    0.57135    0.83779   1.00
H2       0.37975    0.69347    0.93803   1.00
H2       0.12851    0.62046    0.82449   1.00
H2       0.33261    0.69429    0.95860   1.00
H2       0.17498    0.59924    0.81851   1.00
C4       0.73025    0.49669    1.00346   1.00
C4       0.77191    0.49695    1.00499   1.00
C3       0.70897    0.46925    0.98058   1.00
C3       0.79504    0.46738    0.98711   1.00
C3       0.70854    0.52476    1.02542   1.00
C3       0.79170    0.52770    1.02509   1.00
C2       0.64595    0.49490    1.00185   1.00
C2       0.85622    0.49847    1.00642   1.00
C3       0.66811    0.46820    0.97990   1.00
C3       0.83591    0.46816    0.98759   1.00
C3       0.66696    0.52256    1.02411   1.00
C3       0.83336    0.52754    1.02472   1.00
H1       0.72237    0.44924    0.96325   1.00
H1       0.78306    0.44396    0.97339   1.00
C5       0.72835    0.55413    1.04771   1.00
C5       0.76998    0.55739    1.04504   1.00
H1       0.65451    0.44759    0.96293   1.00
H1       0.85091    0.44605    0.97401   1.00
H1       0.65052    0.54185    1.03954   1.00
H1       0.84848    0.54905    1.03846   1.00
C6       0.70515    0.58097    1.07404   1.00
C6       0.79119    0.59195    1.06261   1.00
H2       0.68345    0.56387    1.08978   1.00
H2       0.81310    0.60225    1.04200   1.00
H2       0.72286    0.59227    1.09780   1.00
H2       0.77228    0.61730    1.06505   1.00
C6       0.68606    0.61605    1.05173   1.00
C6       0.80942    0.58298    1.10359   1.00
H2       0.67292    0.60558    1.02461   1.00
H2       0.82383    0.55453    1.10287   1.00
C6       0.65459    0.64060    1.07395   1.00
C6       0.83911    0.61326    1.12058   1.00
H2       0.70949    0.63568    1.04267   1.00
H2       0.78546    0.57973    1.12437   1.00
C6       0.61735    0.61630    1.08245   1.00
C6       0.87708    0.61506    1.09599   1.00
C6       0.67074    0.65721    1.11277   1.00
C6       0.82107    0.65463    1.12321   1.00
C6       0.64245    0.67555    1.04778   1.00
C6       0.85054    0.60031    1.16247   1.00
H2       0.60558    0.60363    1.05568   1.00
H2       0.89020    0.58617    1.09304   1.00
H2       0.62330    0.59255    1.10270   1.00
H2       0.87154    0.62630    1.06679   1.00
H2       0.59459    0.63436    1.09549   1.00
H2       0.89863    0.63419    1.10954   1.00
H2       0.64955    0.67652    1.12664   1.00
H2       0.84098    0.67489    1.13764   1.00
H2       0.67725    0.63383    1.13333   1.00
H2       0.81494    0.66626    1.09425   1.00
H2       0.69745    0.67377    1.10771   1.00
H2       0.79385    0.65404    1.13970   1.00
H2       0.63042    0.66539    1.02008   1.00
H2       0.86383    0.57135    1.16221   1.00
H2       0.62025    0.69347    1.06197   1.00
H2       0.87149    0.62046    1.17551   1.00
H2       0.66739    0.69429    1.04140   1.00
H2       0.82502    0.59924    1.18149   1.00
C4       0.49654    0.26975    0.99669   1.00
C4       0.49501    0.22809    0.99695   1.00
C3       0.51942    0.29103    0.96925   1.00
C3       0.51289    0.20496    0.96738   1.00
C3       0.47458    0.29146    1.02476   1.00
C3       0.47491    0.20830    1.02770   1.00
C2       0.49815    0.35405    0.99490   1.00
C2       0.49358    0.14378    0.99847   1.00
C3       0.52010    0.33189    0.96820   1.00
C3       0.51241    0.16409    0.96816   1.00
C3       0.47589    0.33304    1.02256   1.00
C3       0.47528    0.16664    1.02754   1.00
H1       0.53675    0.27763    0.94924   1.00
H1       0.52661    0.21694    0.94396   1.00
C5       0.45229    0.27165    1.05413   1.00
C5       0.45496    0.23002    1.05739   1.00
H1       0.53707    0.34549    0.94759   1.00
H1       0.52599    0.14909    0.94605   1.00
H1       0.46046    0.34948    1.04185   1.00
H1       0.46154    0.15152    1.04905   1.00
C6       0.42596    0.29485    1.08097   1.00
C6       0.43739    0.20881    1.09195   1.00
H2       0.41022    0.31655    1.06387   1.00
H2       0.45800    0.18690    1.10225   1.00
H2       0.40220    0.27714    1.09227   1.00
H2       0.43495    0.22772    1.11730   1.00
C6       0.44827    0.31394    1.11605   1.00
C6       0.39641    0.19058    1.08298   1.00
H2       0.47539    0.32708    1.10558   1.00
H2       0.39713    0.17617    1.05453   1.00
C6       0.42605    0.34541    1.14060   1.00
C6       0.37942    0.16089    1.11326   1.00
H2       0.45733    0.29051    1.13568   1.00
H2       0.37563    0.21454    1.07973   1.00
C6       0.41755    0.38265    1.11630   1.00
C6       0.40401    0.12292    1.11506   1.00
C6       0.38723    0.32926    1.15721   1.00
C6       0.37679    0.17893    1.15463   1.00
C6       0.45222    0.35755    1.17555   1.00
C6       0.33753    0.14946    1.10031   1.00
H2       0.44432    0.39442    1.10363   1.00
H2       0.40696    0.10980    1.08617   1.00
H2       0.39730    0.37670    1.09255   1.00
H2       0.43321    0.12846    1.12630   1.00
H2       0.40451    0.40541    1.13436   1.00
H2       0.39046    0.10137    1.13419   1.00
H2       0.37336    0.35045    1.17652   1.00
H2       0.36236    0.15902    1.17489   1.00
H2       0.36667    0.32275    1.13383   1.00
H2       0.40575    0.18506    1.16626   1.00
H2       0.39229    0.30255    1.17377   1.00
H2       0.36030    0.20615    1.15404   1.00
H2       0.47992    0.36958    1.16539   1.00
H2       0.33779    0.13617    1.07135   1.00
H2       0.43803    0.37975    1.19347   1.00
H2       0.32449    0.12851    1.12046   1.00
H2       0.45860    0.33261    1.19429   1.00
H2       0.31851    0.17498    1.09924   1.00
C4       0.49669    0.49654    0.76975   1.00
C4       0.49695    0.49501    0.72809   1.00
C3       0.46925    0.51942    0.79103   1.00
C3       0.46738    0.51289    0.70496   1.00
C3       0.52476    0.47458    0.79146   1.00
C3       0.52770    0.47491    0.70830   1.00
C2       0.49490    0.49815    0.85405   1.00
C2       0.49847    0.49358    0.64378   1.00
C3       0.46820    0.52010    0.83189   1.00
C3       0.46816    0.51241    0.66409   1.00
C3       0.52256    0.47589    0.83304   1.00
C3       0.52754    0.47528    0.66664   1.00
H1       0.44924    0.53675    0.77763   1.00
H1       0.44396    0.52661    0.71694   1.00
C5       0.55413    0.45229    0.77165   1.00
C5       0.55739    0.45496    0.73002   1.00
H1       0.44759    0.53707    0.84549   1.00
H1       0.44605    0.52599    0.64909   1.00
H1       0.54185    0.46046    0.84948   1.00
H1       0.54905    0.46154    0.65152   1.00
C6       0.58097    0.42596    0.79485   1.00
C6       0.59195    0.43739    0.70881   1.00
H2       0.56387    0.41022    0.81655   1.00
H2       0.60225    0.45800    0.68690   1.00
H2       0.59227    0.40220    0.77714   1.00
H2       0.61730    0.43495    0.72772   1.00
C6       0.61605    0.44827    0.81394   1.00
C6       0.58298    0.39641    0.69058   1.00
H2       0.60558    0.47539    0.82708   1.00
H2       0.55453    0.39713    0.67617   1.00
C6       0.64060    0.42605    0.84541   1.00
C6       0.61326    0.37942    0.66089   1.00
H2       0.63568    0.45733    0.79051   1.00
H2       0.57973    0.37563    0.71454   1.00
C6       0.61630    0.41755    0.88265   1.00
C6       0.61506    0.40401    0.62292   1.00
C6       0.65721    0.38723    0.82926   1.00
C6       0.65463    0.37679    0.67893   1.00
C6       0.67555    0.45222    0.85755   1.00
C6       0.60031    0.33753    0.64946   1.00
H2       0.60363    0.44432    0.89442   1.00
H2       0.58617    0.40696    0.60980   1.00
H2       0.59255    0.39730    0.87670   1.00
H2       0.62630    0.43321    0.62846   1.00
H2       0.63436    0.40451    0.90541   1.00
H2       0.63419    0.39046    0.60137   1.00
H2       0.67652    0.37336    0.85045   1.00
H2       0.67489    0.36236    0.65902   1.00
H2       0.63383    0.36667    0.82275   1.00
H2       0.66626    0.40575    0.68506   1.00
H2       0.67377    0.39229    0.80255   1.00
H2       0.65404    0.36030    0.70615   1.00
H2       0.66539    0.47992    0.86958   1.00
H2       0.57135    0.33779    0.63617   1.00
H2       0.69347    0.43803    0.87975   1.00
H2       0.62046    0.32449    0.62851   1.00
H2       0.69429    0.45860    0.83261   1.00
H2       0.59924    0.31851    0.67498   1.00
C4       0.49669    1.00346    0.73025   1.00
C4       0.49695    1.00499    0.77191   1.00
C3       0.46925    0.98058    0.70897   1.00
C3       0.46738    0.98711    0.79504   1.00
C3       0.52476    1.02542    0.70854   1.00
C3       0.52770    1.02509    0.79170   1.00
C2       0.49490    1.00185    0.64595   1.00
C2       0.49847    1.00642    0.85622   1.00
C3       0.46820    0.97990    0.66811   1.00
C3       0.46816    0.98759    0.83591   1.00
C3       0.52256    1.02411    0.66696   1.00
C3       0.52754    1.02472    0.83336   1.00
H1       0.44924    0.96325    0.72237   1.00
H1       0.44396    0.97339    0.78306   1.00
C5       0.55413    1.04771    0.72835   1.00
C5       0.55739    1.04504    0.76998   1.00
H1       0.44759    0.96293    0.65451   1.00
H1       0.44605    0.97401    0.85091   1.00
H1       0.54185    1.03954    0.65052   1.00
H1       0.54905    1.03846    0.84848   1.00
C6       0.58097    1.07404    0.70515   1.00
C6       0.59195    1.06261    0.79119   1.00
H2       0.56387    1.08978    0.68345   1.00
H2       0.60225    1.04200    0.81310   1.00
H2       0.59227    1.09780    0.72286   1.00
H2       0.61730    1.06505    0.77228   1.00
C6       0.61605    1.05173    0.68606   1.00
C6       0.58298    1.10359    0.80942   1.00
H2       0.60558    1.02461    0.67292   1.00
H2       0.55453    1.10287    0.82383   1.00
C6       0.64060    1.07395    0.65459   1.00
C6       0.61326    1.12058    0.83911   1.00
H2       0.63568    1.04267    0.70949   1.00
H2       0.57973    1.12437    0.78546   1.00
C6       0.61630    1.08245    0.61735   1.00
C6       0.61506    1.09599    0.87708   1.00
C6       0.65721    1.11277    0.67074   1.00
C6       0.65463    1.12321    0.82107   1.00
C6       0.67555    1.04778    0.64245   1.00
C6       0.60031    1.16247    0.85054   1.00
H2       0.60363    1.05568    0.60558   1.00
H2       0.58617    1.09304    0.89020   1.00
H2       0.59255    1.10270    0.62330   1.00
H2       0.62630    1.06679    0.87154   1.00
H2       0.63436    1.09549    0.59459   1.00
H2       0.63419    1.10954    0.89863   1.00
H2       0.67652    1.12664    0.64955   1.00
H2       0.67489    1.13764    0.84098   1.00
H2       0.63383    1.13333    0.67725   1.00
H2       0.66626    1.09425    0.81494   1.00
H2       0.67377    1.10771    0.69745   1.00
H2       0.65404    1.13970    0.79385   1.00
H2       0.66539    1.02008    0.63042   1.00
H2       0.57135    1.16221    0.86383   1.00
H2       0.69347    1.06197    0.62025   1.00
H2       0.62046    1.17551    0.87149   1.00
H2       0.69429    1.04140    0.66739   1.00
H2       0.59924    1.18149    0.82502   1.00
C4       0.50346    1.23025    0.49669   1.00
C4       0.50499    1.27191    0.49695   1.00
C3       0.48058    1.20897    0.46925   1.00
C3       0.48711    1.29504    0.46738   1.00
C3       0.52542    1.20854    0.52476   1.00
C3       0.52509    1.29170    0.52770   1.00
C2       0.50185    1.14595    0.49490   1.00
C2       0.50642    1.35622    0.49847   1.00
C3       0.47990    1.16811    0.46820   1.00
C3       0.48759    1.33591    0.46816   1.00
C3       0.52411    1.16696    0.52256   1.00
C3       0.52472    1.33336    0.52754   1.00
H1       0.46325    1.22237    0.44924   1.00
H1       0.47339    1.28306    0.44396   1.00
C5       0.54771    1.22835    0.55413   1.00
C5       0.54504    1.26998    0.55739   1.00
H1       0.46293    1.15451    0.44759   1.00
H1       0.47401    1.35091    0.44605   1.00
H1       0.53954    1.15052    0.54185   1.00
H1       0.53846    1.34848    0.54905   1.00
C6       0.57404    1.20515    0.58097   1.00
C6       0.56261    1.29119    0.59195   1.00
H2       0.58978    1.18345    0.56387   1.00
H2       0.54200    1.31310    0.60225   1.00
H2       0.59780    1.22286    0.59227   1.00
H2       0.56505    1.27228    0.61730   1.00
C6       0.55173    1.18606    0.61605   1.00
C6       0.60359    1.30942    0.58298   1.00
H2       0.52461    1.17292    0.60558   1.00
H2       0.60287    1.32383    0.55453   1.00
C6       0.57395    1.15459    0.64060   1.00
C6       0.62058    1.33911    0.61326   1.00
H2       0.54267    1.20949    0.63568   1.00
H2       0.62437    1.28546    0.57973   1.00
C6       0.58245    1.11735    0.61630   1.00
C6       0.59599    1.37708    0.61506   1.00
C6       0.61277    1.17074    0.65721   1.00
C6       0.62321    1.32107    0.65463   1.00
C6       0.54778    1.14245    0.67555   1.00
C6       0.66247    1.35054    0.60031   1.00
H2       0.55568    1.10558    0.60363   1.00
H2       0.59304    1.39020    0.58617   1.00
H2       0.60270    1.12330    0.59255   1.00
H2       0.56679    1.37154    0.62630   1.00
H2       0.59549    1.09459    0.63436   1.00
H2       0.60954    1.39863    0.63419   1.00
H2       0.62664    1.14955    0.67652   1.00
H2       0.63764    1.34098    0.67489   1.00
H2       0.63333    1.17725    0.63383   1.00
H2       0.59425    1.31494    0.66626   1.00
H2       0.60771    1.19745    0.67377   1.00
H2       0.63970    1.29385    0.65404   1.00
H2       0.52008    1.13042    0.66539   1.00
H2       0.66221    1.36383    0.57135   1.00
H2       0.56197    1.12025    0.69347   1.00
H2       0.67551    1.37149    0.62046   1.00
H2       0.54140    1.16739    0.69429   1.00
H2       0.68149    1.32502    0.59924   1.00
C4       0.26975    0.99669    0.49654   1.00
C4       0.22809    0.99695    0.49501   1.00
C3       0.29103    0.96925    0.51942   1.00
C3       0.20496    0.96738    0.51289   1.00
C3       0.29146    1.02476    0.47458   1.00
C3       0.20830    1.02770    0.47491   1.00
C2       0.35405    0.99490    0.49815   1.00
C2       0.14378    0.99847    0.49358   1.00
C3       0.33189    0.96820    0.52010   1.00
C3       0.16409    0.96816    0.51241   1.00
C3       0.33304    1.02256    0.47589   1.00
C3       0.16664    1.02754    0.47528   1.00
H1       0.27763    0.94924    0.53675   1.00
H1       0.21694    0.94396    0.52661   1.00
C5       0.27165    1.05413    0.45229   1.00
C5       0.23002    1.05739    0.45496   1.00
H1       0.34549    0.94759    0.53707   1.00
H1       0.14909    0.94605    0.52599   1.00
H1       0.34948    1.04185    0.46046   1.00
H1       0.15152    1.04905    0.46154   1.00
C6       0.29485    1.08097    0.42596   1.00
C6       0.20881    1.09195    0.43739   1.00
H2       0.31655    1.06387    0.41022   1.00
H2       0.18690    1.10225    0.45800   1.00
H2       0.27714    1.09227    0.40220   1.00
H2       0.22772    1.11730    0.43495   1.00
C6       0.31394    1.11605    0.44827   1.00
C6       0.19058    1.08298    0.39641   1.00
H2       0.32708    1.10558    0.47539   1.00
H2       0.17617    1.05453    0.39713   1.00
C6       0.34541    1.14060    0.42605   1.00
C6       0.16089    1.11326    0.37942   1.00
H2       0.29051    1.13568    0.45733   1.00
H2       0.21454    1.07973    0.37563   1.00
C6       0.38265    1.11630    0.41755   1.00
C6       0.12292    1.11506    0.40401   1.00
C6       0.32926    1.15721    0.38723   1.00
C6       0.17893    1.15463    0.37679   1.00
C6       0.35755    1.17555    0.45222   1.00
C6       0.14946    1.10031    0.33753   1.00
H2       0.39442    1.10363    0.44432   1.00
H2       0.10980    1.08617    0.40696   1.00
H2       0.37670    1.09255    0.39730   1.00
H2       0.12846    1.12630    0.43321   1.00
H2       0.40541    1.13436    0.40451   1.00
H2       0.10137    1.13419    0.39046   1.00
H2       0.35045    1.17652    0.37336   1.00
H2       0.15902    1.17489    0.36236   1.00
H2       0.32275    1.13383    0.36667   1.00
H2       0.18506    1.16626    0.40575   1.00
H2       0.30255    1.17377    0.39229   1.00
H2       0.20615    1.15404    0.36030   1.00
H2       0.36958    1.16539    0.47992   1.00
H2       0.13617    1.07135    0.33779   1.00
H2       0.37975    1.19347    0.43803   1.00
H2       0.12851    1.12046    0.32449   1.00
H2       0.33261    1.19429    0.45860   1.00
H2       0.17498    1.09924    0.31851   1.00
C4       0.73025    0.99669    0.50346   1.00
C4       0.77191    0.99695    0.50499   1.00
C3       0.70897    0.96925    0.48058   1.00
C3       0.79504    0.96738    0.48711   1.00
C3       0.70854    1.02476    0.52542   1.00
C3       0.79170    1.02770    0.52509   1.00
C2       0.64595    0.99490    0.50185   1.00
C2       0.85622    0.99847    0.50642   1.00
C3       0.66811    0.96820    0.47990   1.00
C3       0.83591    0.96816    0.48759   1.00
C3       0.66696    1.02256    0.52411   1.00
C3       0.83336    1.02754    0.52472   1.00
H1       0.72237    0.94924    0.46325   1.00
H1       0.78306    0.94396    0.47339   1.00
C5       0.72835    1.05413    0.54771   1.00
C5       0.76998    1.05739    0.54504   1.00
H1       0.65451    0.94759    0.46293   1.00
H1       0.85091    0.94605    0.47401   1.00
H1       0.65052    1.04185    0.53954   1.00
H1       0.84848    1.04905    0.53846   1.00
C6       0.70515    1.08097    0.57404   1.00
C6       0.79119    1.09195    0.56261   1.00
H2       0.68345    1.06387    0.58978   1.00
H2       0.81310    1.10225    0.54200   1.00
H2       0.72286    1.09227    0.59780   1.00
H2       0.77228    1.11730    0.56505   1.00
C6       0.68606    1.11605    0.55173   1.00
C6       0.80942    1.08298    0.60359   1.00
H2       0.67292    1.10558    0.52461   1.00
H2       0.82383    1.05453    0.60287   1.00
C6       0.65459    1.14060    0.57395   1.00
C6       0.83911    1.11326    0.62058   1.00
H2       0.70949    1.13568    0.54267   1.00
H2       0.78546    1.07973    0.62437   1.00
C6       0.61735    1.11630    0.58245   1.00
C6       0.87708    1.11506    0.59599   1.00
C6       0.67074    1.15721    0.61277   1.00
C6       0.82107    1.15463    0.62321   1.00
C6       0.64245    1.17555    0.54778   1.00
C6       0.85054    1.10031    0.66247   1.00
H2       0.60558    1.10363    0.55568   1.00
H2       0.89020    1.08617    0.59304   1.00
H2       0.62330    1.09255    0.60270   1.00
H2       0.87154    1.12630    0.56679   1.00
H2       0.59459    1.13436    0.59549   1.00
H2       0.89863    1.13419    0.60954   1.00
H2       0.64955    1.17652    0.62664   1.00
H2       0.84098    1.17489    0.63764   1.00
H2       0.67725    1.13383    0.63333   1.00
H2       0.81494    1.16626    0.59425   1.00
H2       0.69745    1.17377    0.60771   1.00
H2       0.79385    1.15404    0.63970   1.00
H2       0.63042    1.16539    0.52008   1.00
H2       0.86383    1.07135    0.66221   1.00
H2       0.62025    1.19347    0.56197   1.00
H2       0.87149    1.12046    0.67551   1.00
H2       0.66739    1.19429    0.54140   1.00
H2       0.82502    1.09924    0.68149   1.00
C4       0.49654    0.76975    0.49669   1.00
C4       0.49501    0.72809    0.49695   1.00
C3       0.51942    0.79103    0.46925   1.00
C3       0.51289    0.70496    0.46738   1.00
C3       0.47458    0.79146    0.52476   1.00
C3       0.47491    0.70830    0.52770   1.00
C2       0.49815    0.85405    0.49490   1.00
C2       0.49358    0.64378    0.49847   1.00
C3       0.52010    0.83189    0.46820   1.00
C3       0.51241    0.66409    0.46816   1.00
C3       0.47589    0.83304    0.52256   1.00
C3       0.47528    0.66664    0.52754   1.00
H1       0.53675    0.77763    0.44924   1.00
H1       0.52661    0.71694    0.44396   1.00
C5       0.45229    0.77165    0.55413   1.00
C5       0.45496    0.73002    0.55739   1.00
H1       0.53707    0.84549    0.44759   1.00
H1       0.52599    0.64909    0.44605   1.00
H1       0.46046    0.84948    0.54185   1.00
H1       0.46154    0.65152    0.54905   1.00
C6       0.42596    0.79485    0.58097   1.00
C6       0.43739    0.70881    0.59195   1.00
H2       0.41022    0.81655    0.56387   1.00
H2       0.45800    0.68690    0.60225   1.00
H2       0.40220    0.77714    0.59227   1.00
H2       0.43495    0.72772    0.61730   1.00
C6       0.44827    0.81394    0.61605   1.00
C6       0.39641    0.69058    0.58298   1.00
H2       0.47539    0.82708    0.60558   1.00
H2       0.39713    0.67617    0.55453   1.00
C6       0.42605    0.84541    0.64060   1.00
C6       0.37942    0.66089    0.61326   1.00
H2       0.45733    0.79051    0.63568   1.00
H2       0.37563    0.71454    0.57973   1.00
C6       0.41755    0.88265    0.61630   1.00
C6       0.40401    0.62292    0.61506   1.00
C6       0.38723    0.82926    0.65721   1.00
C6       0.37679    0.67893    0.65463   1.00
C6       0.45222    0.85755    0.67555   1.00
C6       0.33753    0.64946    0.60031   1.00
H2       0.44432    0.89442    0.60363   1.00
H2       0.40696    0.60980    0.58617   1.00
H2       0.39730    0.87670    0.59255   1.00
H2       0.43321    0.62846    0.62630   1.00
H2       0.40451    0.90541    0.63436   1.00
H2       0.39046    0.60137    0.63419   1.00
H2       0.37336    0.85045    0.67652   1.00
H2       0.36236    0.65902    0.67489   1.00
H2       0.36667    0.82275    0.63383   1.00
H2       0.40575    0.68506    0.66626   1.00
H2       0.39229    0.80255    0.67377   1.00
H2       0.36030    0.70615    0.65404   1.00
H2       0.47992    0.86958    0.66539   1.00
H2       0.33779    0.63617    0.57135   1.00
H2       0.43803    0.87975    0.69347   1.00
H2       0.32449    0.62851    0.62046   1.00
H2       0.45860    0.83261    0.69429   1.00
H2       0.31851    0.67498    0.59924   1.00
C4       0.49669    0.99654    0.26975   1.00
C4       0.49695    0.99501    0.22809   1.00
C3       0.46925    1.01942    0.29103   1.00
C3       0.46738    1.01289    0.20496   1.00
C3       0.52476    0.97458    0.29146   1.00
C3       0.52770    0.97491    0.20830   1.00
C2       0.49490    0.99815    0.35405   1.00
C2       0.49847    0.99358    0.14378   1.00
C3       0.46820    1.02010    0.33189   1.00
C3       0.46816    1.01241    0.16409   1.00
C3       0.52256    0.97589    0.33304   1.00
C3       0.52754    0.97528    0.16664   1.00
H1       0.44924    1.03675    0.27763   1.00
H1       0.44396    1.02661    0.21694   1.00
C5       0.55413    0.95229    0.27165   1.00
C5       0.55739    0.95496    0.23002   1.00
H1       0.44759    1.03707    0.34549   1.00
H1       0.44605    1.02599    0.14909   1.00
H1       0.54185    0.96046    0.34948   1.00
H1       0.54905    0.96154    0.15152   1.00
C6       0.58097    0.92596    0.29485   1.00
C6       0.59195    0.93739    0.20881   1.00
H2       0.56387    0.91022    0.31655   1.00
H2       0.60225    0.95800    0.18690   1.00
H2       0.59227    0.90220    0.27714   1.00
H2       0.61730    0.93495    0.22772   1.00
C6       0.61605    0.94827    0.31394   1.00
C6       0.58298    0.89641    0.19058   1.00
H2       0.60558    0.97539    0.32708   1.00
H2       0.55453    0.89713    0.17617   1.00
C6       0.64060    0.92605    0.34541   1.00
C6       0.61326    0.87942    0.16089   1.00
H2       0.63568    0.95733    0.29051   1.00
H2       0.57973    0.87563    0.21454   1.00
C6       0.61630    0.91755    0.38265   1.00
C6       0.61506    0.90401    0.12292   1.00
C6       0.65721    0.88723    0.32926   1.00
C6       0.65463    0.87679    0.17893   1.00
C6       0.67555    0.95222    0.35755   1.00
C6       0.60031    0.83753    0.14946   1.00
H2       0.60363    0.94432    0.39442   1.00
H2       0.58617    0.90696    0.10980   1.00
H2       0.59255    0.89730    0.37670   1.00
H2       0.62630    0.93321    0.12846   1.00
H2       0.63436    0.90451    0.40541   1.00
H2       0.63419    0.89046    0.10137   1.00
H2       0.67652    0.87336    0.35045   1.00
H2       0.67489    0.86236    0.15902   1.00
H2       0.63383    0.86667    0.32275   1.00
H2       0.66626    0.90575    0.18506   1.00
H2       0.67377    0.89229    0.30255   1.00
H2       0.65404    0.86030    0.20615   1.00
H2       0.66539    0.97992    0.36958   1.00
H2       0.57135    0.83779    0.13617   1.00
H2       0.69347    0.93803    0.37975   1.00
H2       0.62046    0.82449    0.12851   1.00
H2       0.69429    0.95860    0.33261   1.00
H2       0.59924    0.81851    0.17498   1.00
C4       0.99669    0.50346    0.73025   1.00
C4       0.99695    0.50499    0.77191   1.00
C3       0.96925    0.48058    0.70897   1.00
C3       0.96738    0.48711    0.79504   1.00
C3       1.02476    0.52542    0.70854   1.00
C3       1.02770    0.52509    0.79170   1.00
C2       0.99490    0.50185    0.64595   1.00
C2       0.99847    0.50642    0.85622   1.00
C3       0.96820    0.47990    0.66811   1.00
C3       0.96816    0.48759    0.83591   1.00
C3       1.02256    0.52411    0.66696   1.00
C3       1.02754    0.52472    0.83336   1.00
H1       0.94924    0.46325    0.72237   1.00
H1       0.94396    0.47339    0.78306   1.00
C5       1.05413    0.54771    0.72835   1.00
C5       1.05739    0.54504    0.76998   1.00
H1       0.94759    0.46293    0.65451   1.00
H1       0.94605    0.47401    0.85091   1.00
H1       1.04185    0.53954    0.65052   1.00
H1       1.04905    0.53846    0.84848   1.00
C6       1.08097    0.57404    0.70515   1.00
C6       1.09195    0.56261    0.79119   1.00
H2       1.06387    0.58978    0.68345   1.00
H2       1.10225    0.54200    0.81310   1.00
H2       1.09227    0.59780    0.72286   1.00
H2       1.11730    0.56505    0.77228   1.00
C6       1.11605    0.55173    0.68606   1.00
C6       1.08298    0.60359    0.80942   1.00
H2       1.10558    0.52461    0.67292   1.00
H2       1.05453    0.60287    0.82383   1.00
C6       1.14060    0.57395    0.65459   1.00
C6       1.11326    0.62058    0.83911   1.00
H2       1.13568    0.54267    0.70949   1.00
H2       1.07973    0.62437    0.78546   1.00
C6       1.11630    0.58245    0.61735   1.00
C6       1.11506    0.59599    0.87708   1.00
C6       1.15721    0.61277    0.67074   1.00
C6       1.15463    0.62321    0.82107   1.00
C6       1.17555    0.54778    0.64245   1.00
C6       1.10031    0.66247    0.85054   1.00
H2       1.10363    0.55568    0.60558   1.00
H2       1.08617    0.59304    0.89020   1.00
H2       1.09255    0.60270    0.62330   1.00
H2       1.12630    0.56679    0.87154   1.00
H2       1.13436    0.59549    0.59459   1.00
H2       1.13419    0.60954    0.89863   1.00
H2       1.17652    0.62664    0.64955   1.00
H2       1.17489    0.63764    0.84098   1.00
H2       1.13383    0.63333    0.67725   1.00
H2       1.16626    0.59425    0.81494   1.00
H2       1.17377    0.60771    0.69745   1.00
H2       1.15404    0.63970    0.79385   1.00
H2       1.16539    0.52008    0.63042   1.00
H2       1.07135    0.66221    0.86383   1.00
H2       1.19347    0.56197    0.62025   1.00
H2       1.12046    0.67551    0.87149   1.00
H2       1.19429    0.54140    0.66739   1.00
H2       1.09924    0.68149    0.82502   1.00
C4       1.00346    0.73025    0.49669   1.00
C4       1.00499    0.77191    0.49695   1.00
C3       0.98058    0.70897    0.46925   1.00
C3       0.98711    0.79504    0.46738   1.00
C3       1.02542    0.70854    0.52476   1.00
C3       1.02509    0.79170    0.52770   1.00
C2       1.00185    0.64595    0.49490   1.00
C2       1.00642    0.85622    0.49847   1.00
C3       0.97990    0.66811    0.46820   1.00
C3       0.98759    0.83591    0.46816   1.00
C3       1.02411    0.66696    0.52256   1.00
C3       1.02472    0.83336    0.52754   1.00
H1       0.96325    0.72237    0.44924   1.00
H1       0.97339    0.78306    0.44396   1.00
C5       1.04771    0.72835    0.55413   1.00
C5       1.04504    0.76998    0.55739   1.00
H1       0.96293    0.65451    0.44759   1.00
H1       0.97401    0.85091    0.44605   1.00
H1       1.03954    0.65052    0.54185   1.00
H1       1.03846    0.84848    0.54905   1.00
C6       1.07404    0.70515    0.58097   1.00
C6       1.06261    0.79119    0.59195   1.00
H2       1.08978    0.68345    0.56387   1.00
H2       1.04200    0.81310    0.60225   1.00
H2       1.09780    0.72286    0.59227   1.00
H2       1.06505    0.77228    0.61730   1.00
C6       1.05173    0.68606    0.61605   1.00
C6       1.10359    0.80942    0.58298   1.00
H2       1.02461    0.67292    0.60558   1.00
H2       1.10287    0.82383    0.55453   1.00
C6       1.07395    0.65459    0.64060   1.00
C6       1.12058    0.83911    0.61326   1.00
H2       1.04267    0.70949    0.63568   1.00
H2       1.12437    0.78546    0.57973   1.00
C6       1.08245    0.61735    0.61630   1.00
C6       1.09599    0.87708    0.61506   1.00
C6       1.11277    0.67074    0.65721   1.00
C6       1.12321    0.82107    0.65463   1.00
C6       1.04778    0.64245    0.67555   1.00
C6       1.16247    0.85054    0.60031   1.00
H2       1.05568    0.60558    0.60363   1.00
H2       1.09304    0.89020    0.58617   1.00
H2       1.10270    0.62330    0.59255   1.00
H2       1.06679    0.87154    0.62630   1.00
H2       1.09549    0.59459    0.63436   1.00
H2       1.10954    0.89863    0.63419   1.00
H2       1.12664    0.64955    0.67652   1.00
H2       1.13764    0.84098    0.67489   1.00
H2       1.13333    0.67725    0.63383   1.00
H2       1.09425    0.81494    0.66626   1.00
H2       1.10771    0.69745    0.67377   1.00
H2       1.13970    0.79385    0.65404   1.00
H2       1.02008    0.63042    0.66539   1.00
H2       1.16221    0.86383    0.57135   1.00
H2       1.06197    0.62025    0.69347   1.00
H2       1.17551    0.87149    0.62046   1.00
H2       1.04140    0.66739    0.69429   1.00
H2       1.18149    0.82502    0.59924   1.00
C4       0.76975    0.49669    0.49654   1.00
C4       0.72809    0.49695    0.49501   1.00
C3       0.79103    0.46925    0.51942   1.00
C3       0.70496    0.46738    0.51289   1.00
C3       0.79146    0.52476    0.47458   1.00
C3       0.70830    0.52770    0.47491   1.00
C2       0.85405    0.49490    0.49815   1.00
C2       0.64378    0.49847    0.49358   1.00
C3       0.83189    0.46820    0.52010   1.00
C3       0.66409    0.46816    0.51241   1.00
C3       0.83304    0.52256    0.47589   1.00
C3       0.66664    0.52754    0.47528   1.00
H1       0.77763    0.44924    0.53675   1.00
H1       0.71694    0.44396    0.52661   1.00
C5       0.77165    0.55413    0.45229   1.00
C5       0.73002    0.55739    0.45496   1.00
H1       0.84549    0.44759    0.53707   1.00
H1       0.64909    0.44605    0.52599   1.00
H1       0.84948    0.54185    0.46046   1.00
H1       0.65152    0.54905    0.46154   1.00
C6       0.79485    0.58097    0.42596   1.00
C6       0.70881    0.59195    0.43739   1.00
H2       0.81655    0.56387    0.41022   1.00
H2       0.68690    0.60225    0.45800   1.00
H2       0.77714    0.59227    0.40220   1.00
H2       0.72772    0.61730    0.43495   1.00
C6       0.81394    0.61605    0.44827   1.00
C6       0.69058    0.58298    0.39641   1.00
H2       0.82708    0.60558    0.47539   1.00
H2       0.67617    0.55453    0.39713   1.00
C6       0.84541    0.64060    0.42605   1.00
C6       0.66089    0.61326    0.37942   1.00
H2       0.79051    0.63568    0.45733   1.00
H2       0.71454    0.57973    0.37563   1.00
C6       0.88265    0.61630    0.41755   1.00
C6       0.62292    0.61506    0.40401   1.00
C6       0.82926    0.65721    0.38723   1.00
C6       0.67893    0.65463    0.37679   1.00
C6       0.85755    0.67555    0.45222   1.00
C6       0.64946    0.60031    0.33753   1.00
H2       0.89442    0.60363    0.44432   1.00
H2       0.60980    0.58617    0.40696   1.00
H2       0.87670    0.59255    0.39730   1.00
H2       0.62846    0.62630    0.43321   1.00
H2       0.90541    0.63436    0.40451   1.00
H2       0.60137    0.63419    0.39046   1.00
H2       0.85045    0.67652    0.37336   1.00
H2       0.65902    0.67489    0.36236   1.00
H2       0.82275    0.63383    0.36667   1.00
H2       0.68506    0.66626    0.40575   1.00
H2       0.80255    0.67377    0.39229   1.00
H2       0.70615    0.65404    0.36030   1.00
H2       0.86958    0.66539    0.47992   1.00
H2       0.63617    0.57135    0.33779   1.00
H2       0.87975    0.69347    0.43803   1.00
H2       0.62851    0.62046    0.32449   1.00
H2       0.83261    0.69429    0.45860   1.00
H2       0.67498    0.59924    0.31851   1.00
C4       1.23025    0.49669    0.50346   1.00
C4       1.27191    0.49695    0.50499   1.00
C3       1.20897    0.46925    0.48058   1.00
C3       1.29504    0.46738    0.48711   1.00
C3       1.20854    0.52476    0.52542   1.00
C3       1.29170    0.52770    0.52509   1.00
C2       1.14595    0.49490    0.50185   1.00
C2       1.35622    0.49847    0.50642   1.00
C3       1.16811    0.46820    0.47990   1.00
C3       1.33591    0.46816    0.48759   1.00
C3       1.16696    0.52256    0.52411   1.00
C3       1.33336    0.52754    0.52472   1.00
H1       1.22237    0.44924    0.46325   1.00
H1       1.28306    0.44396    0.47339   1.00
C5       1.22835    0.55413    0.54771   1.00
C5       1.26998    0.55739    0.54504   1.00
H1       1.15451    0.44759    0.46293   1.00
H1       1.35091    0.44605    0.47401   1.00
H1       1.15052    0.54185    0.53954   1.00
H1       1.34848    0.54905    0.53846   1.00
C6       1.20515    0.58097    0.57404   1.00
C6       1.29119    0.59195    0.56261   1.00
H2       1.18345    0.56387    0.58978   1.00
H2       1.31310    0.60225    0.54200   1.00
H2       1.22286    0.59227    0.59780   1.00
H2       1.27228    0.61730    0.56505   1.00
C6       1.18606    0.61605    0.55173   1.00
C6       1.30942    0.58298    0.60359   1.00
H2       1.17292    0.60558    0.52461   1.00
H2       1.32383    0.55453    0.60287   1.00
C6       1.15459    0.64060    0.57395   1.00
C6       1.33911    0.61326    0.62058   1.00
H2       1.20949    0.63568    0.54267   1.00
H2       1.28546    0.57973    0.62437   1.00
C6       1.11735    0.61630    0.58245   1.00
C6       1.37708    0.61506    0.59599   1.00
C6       1.17074    0.65721    0.61277   1.00
C6       1.32107    0.65463    0.62321   1.00
C6       1.14245    0.67555    0.54778   1.00
C6       1.35054    0.60031    0.66247   1.00
H2       1.10558    0.60363    0.55568   1.00
H2       1.39020    0.58617    0.59304   1.00
H2       1.12330    0.59255    0.60270   1.00
H2       1.37154    0.62630    0.56679   1.00
H2       1.09459    0.63436    0.59549   1.00
H2       1.39863    0.63419    0.60954   1.00
H2       1.14955    0.67652    0.62664   1.00
H2       1.34098    0.67489    0.63764   1.00
H2       1.17725    0.63383    0.63333   1.00
H2       1.31494    0.66626    0.59425   1.00
H2       1.19745    0.67377    0.60771   1.00
H2       1.29385    0.65404    0.63970   1.00
H2       1.13042    0.66539    0.52008   1.00
H2       1.36383    0.57135    0.66221   1.00
H2       1.12025    0.69347    0.56197   1.00
H2       1.37149    0.62046    0.67551   1.00
H2       1.16739    0.69429    0.54140   1.00
H2       1.32502    0.59924    0.68149   1.00
C4       0.99654    0.26975    0.49669   1.00
C4       0.99501    0.22809    0.49695   1.00
C3       1.01942    0.29103    0.46925   1.00
C3       1.01289    0.20496    0.46738   1.00
C3       0.97458    0.29146    0.52476   1.00
C3       0.97491    0.20830    0.52770   1.00
C2       0.99815    0.35405    0.49490   1.00
C2       0.99358    0.14378    0.49847   1.00
C3       1.02010    0.33189    0.46820   1.00
C3       1.01241    0.16409    0.46816   1.00
C3       0.97589    0.33304    0.52256   1.00
C3       0.97528    0.16664    0.52754   1.00
H1       1.03675    0.27763    0.44924   1.00
H1       1.02661    0.21694    0.44396   1.00
C5       0.95229    0.27165    0.55413   1.00
C5       0.95496    0.23002    0.55739   1.00
H1       1.03707    0.34549    0.44759   1.00
H1       1.02599    0.14909    0.44605   1.00
H1       0.96046    0.34948    0.54185   1.00
H1       0.96154    0.15152    0.54905   1.00
C6       0.92596    0.29485    0.58097   1.00
C6       0.93739    0.20881    0.59195   1.00
H2       0.91022    0.31655    0.56387   1.00
H2       0.95800    0.18690    0.60225   1.00
H2       0.90220    0.27714    0.59227   1.00
H2       0.93495    0.22772    0.61730   1.00
C6       0.94827    0.31394    0.61605   1.00
C6       0.89641    0.19058    0.58298   1.00
H2       0.97539    0.32708    0.60558   1.00
H2       0.89713    0.17617    0.55453   1.00
C6       0.92605    0.34541    0.64060   1.00
C6       0.87942    0.16089    0.61326   1.00
H2       0.95733    0.29051    0.63568   1.00
H2       0.87563    0.21454    0.57973   1.00
C6       0.91755    0.38265    0.61630   1.00
C6       0.90401    0.12292    0.61506   1.00
C6       0.88723    0.32926    0.65721   1.00
C6       0.87679    0.17893    0.65463   1.00
C6       0.95222    0.35755    0.67555   1.00
C6       0.83753    0.14946    0.60031   1.00
H2       0.94432    0.39442    0.60363   1.00
H2       0.90696    0.10980    0.58617   1.00
H2       0.89730    0.37670    0.59255   1.00
H2       0.93321    0.12846    0.62630   1.00
H2       0.90451    0.40541    0.63436   1.00
H2       0.89046    0.10137    0.63419   1.00
H2       0.87336    0.35045    0.67652   1.00
H2       0.86236    0.15902    0.67489   1.00
H2       0.86667    0.32275    0.63383   1.00
H2       0.90575    0.18506    0.66626   1.00
H2       0.89229    0.30255    0.67377   1.00
H2       0.86030    0.20615    0.65404   1.00
H2       0.97992    0.36958    0.66539   1.00
H2       0.83779    0.13617    0.57135   1.00
H2       0.93803    0.37975    0.69347   1.00
H2       0.82449    0.12851    0.62046   1.00
H2       0.95860    0.33261    0.69429   1.00
H2       0.81851    0.17498    0.59924   1.00
C4       0.99669    0.49654    0.26975   1.00
C4       0.99695    0.49501    0.22809   1.00
C3       0.96925    0.51942    0.29103   1.00
C3       0.96738    0.51289    0.20496   1.00
C3       1.02476    0.47458    0.29146   1.00
C3       1.02770    0.47491    0.20830   1.00
C2       0.99490    0.49815    0.35405   1.00
C2       0.99847    0.49358    0.14378   1.00
C3       0.96820    0.52010    0.33189   1.00
C3       0.96816    0.51241    0.16409   1.00
C3       1.02256    0.47589    0.33304   1.00
C3       1.02754    0.47528    0.16664   1.00
H1       0.94924    0.53675    0.27763   1.00
H1       0.94396    0.52661    0.21694   1.00
C5       1.05413    0.45229    0.27165   1.00
C5       1.05739    0.45496    0.23002   1.00
H1       0.94759    0.53707    0.34549   1.00
H1       0.94605    0.52599    0.14909   1.00
H1       1.04185    0.46046    0.34948   1.00
H1       1.04905    0.46154    0.15152   1.00
C6       1.08097    0.42596    0.29485   1.00
C6       1.09195    0.43739    0.20881   1.00
H2       1.06387    0.41022    0.31655   1.00
H2       1.10225    0.45800    0.18690   1.00
H2       1.09227    0.40220    0.27714   1.00
H2       1.11730    0.43495    0.22772   1.00
C6       1.11605    0.44827    0.31394   1.00
C6       1.08298    0.39641    0.19058   1.00
H2       1.10558    0.47539    0.32708   1.00
H2       1.05453    0.39713    0.17617   1.00
C6       1.14060    0.42605    0.34541   1.00
C6       1.11326    0.37942    0.16089   1.00
H2       1.13568    0.45733    0.29051   1.00
H2       1.07973    0.37563    0.21454   1.00
C6       1.11630    0.41755    0.38265   1.00
C6       1.11506    0.40401    0.12292   1.00
C6       1.15721    0.38723    0.32926   1.00
C6       1.15463    0.37679    0.17893   1.00
C6       1.17555    0.45222    0.35755   1.00
C6       1.10031    0.33753    0.14946   1.00
H2       1.10363    0.44432    0.39442   1.00
H2       1.08617    0.40696    0.10980   1.00
H2       1.09255    0.39730    0.37670   1.00
H2       1.12630    0.43321    0.12846   1.00
H2       1.13436    0.40451    0.40541   1.00
H2       1.13419    0.39046    0.10137   1.00
H2       1.17652    0.37336    0.35045   1.00
H2       1.17489    0.36236    0.15902   1.00
H2       1.13383    0.36667    0.32275   1.00
H2       1.16626    0.40575    0.18506   1.00
H2       1.17377    0.39229    0.30255   1.00
H2       1.15404    0.36030    0.20615   1.00
H2       1.16539    0.47992    0.36958   1.00
H2       1.07135    0.33779    0.13617   1.00
H2       1.19347    0.43803    0.37975   1.00
H2       1.12046    0.32449    0.12851   1.00
H2       1.19429    0.45860    0.33261   1.00
H2       1.09924    0.31851    0.17498   1.00
