data_IRMOF10_SG202_interpen_Ligand10lp_label_e.

_audit_creation_method             'generated by an auxiliary program of Tobunporous'

_symmetry_space_group_name_H-M     'P 1'
_symmetry_Int_Tables_number        1
_symmetry_cell_setting             triclinic

_cell_length_a                    34.2800
_cell_length_b                    34.2800
_cell_length_c                    34.2800
_cell_angle_alpha                 90.0000
_cell_angle_beta                  90.0000
_cell_angle_gamma                 90.0000

loop_
_atom_site_label
_atom_site_fract_x
_atom_site_fract_y
_atom_site_fract_z
_atom_site_occupancy
O1       0.75000    0.75000    0.75000   1.00
Zn1      0.71720    0.78280    0.78280   1.00
Zn1      0.78280    0.71720    0.78280   1.00
Zn1      0.78280    0.78280    0.71720   1.00
Zn1      0.71720    0.71720    0.71720   1.00
O2       0.72650    0.77350    0.83820   1.00
O2       0.72650    0.83820    0.77350   1.00
O2       0.66180    0.77350    0.77350   1.00
O2       0.77350    0.72650    0.83820   1.00
O2       0.83820    0.72650    0.77350   1.00
O2       0.77350    0.66180    0.77350   1.00
O2       0.77350    0.83820    0.72650   1.00
O2       0.83820    0.77350    0.72650   1.00
O2       0.77350    0.77350    0.66180   1.00
O2       0.66180    0.72650    0.72650   1.00
O2       0.72650    0.66180    0.72650   1.00
O2       0.72650    0.72650    0.66180   1.00
C1       0.75000    0.75000    0.85520   1.00
C1       0.75000    0.85520    0.75000   1.00
C1       0.64480    0.75000    0.75000   1.00
C1       0.85520    0.75000    0.75000   1.00
C1       0.75000    0.64480    0.75000   1.00
C1       0.75000    0.75000    0.64480   1.00
O1       0.25000    0.25000    0.75000   1.00
Zn1      0.21720    0.28280    0.78280   1.00
Zn1      0.28280    0.21720    0.78280   1.00
Zn1      0.28280    0.28280    0.71720   1.00
Zn1      0.21720    0.21720    0.71720   1.00
O2       0.22650    0.27350    0.83820   1.00
O2       0.22650    0.33820    0.77350   1.00
O2       0.16180    0.27350    0.77350   1.00
O2       0.27350    0.22650    0.83820   1.00
O2       0.33820    0.22650    0.77350   1.00
O2       0.27350    0.16180    0.77350   1.00
O2       0.27350    0.33820    0.72650   1.00
O2       0.33820    0.27350    0.72650   1.00
O2       0.27350    0.27350    0.66180   1.00
O2       0.16180    0.22650    0.72650   1.00
O2       0.22650    0.16180    0.72650   1.00
O2       0.22650    0.22650    0.66180   1.00
C1       0.25000    0.25000    0.85520   1.00
C1       0.25000    0.35520    0.75000   1.00
C1       0.14480    0.25000    0.75000   1.00
C1       0.35520    0.25000    0.75000   1.00
C1       0.25000    0.14480    0.75000   1.00
C1       0.25000    0.25000    0.64480   1.00
O1       0.25000    0.75000    0.25000   1.00
Zn1      0.21720    0.78280    0.28280   1.00
Zn1      0.28280    0.71720    0.28280   1.00
Zn1      0.28280    0.78280    0.21720   1.00
Zn1      0.21720    0.71720    0.21720   1.00
O2       0.22650    0.77350    0.33820   1.00
O2       0.22650    0.83820    0.27350   1.00
O2       0.16180    0.77350    0.27350   1.00
O2       0.27350    0.72650    0.33820   1.00
O2       0.33820    0.72650    0.27350   1.00
O2       0.27350    0.66180    0.27350   1.00
O2       0.27350    0.83820    0.22650   1.00
O2       0.33820    0.77350    0.22650   1.00
O2       0.27350    0.77350    0.16180   1.00
O2       0.16180    0.72650    0.22650   1.00
O2       0.22650    0.66180    0.22650   1.00
O2       0.22650    0.72650    0.16180   1.00
C1       0.25000    0.75000    0.35520   1.00
C1       0.25000    0.85520    0.25000   1.00
C1       0.14480    0.75000    0.25000   1.00
C1       0.35520    0.75000    0.25000   1.00
C1       0.25000    0.64480    0.25000   1.00
C1       0.25000    0.75000    0.14480   1.00
O1       0.75000    0.25000    0.25000   1.00
Zn1      0.71720    0.28280    0.28280   1.00
Zn1      0.78280    0.21720    0.28280   1.00
Zn1      0.78280    0.28280    0.21720   1.00
Zn1      0.71720    0.21720    0.21720   1.00
O2       0.72650    0.27350    0.33820   1.00
O2       0.72650    0.33820    0.27350   1.00
O2       0.66180    0.27350    0.27350   1.00
O2       0.77350    0.22650    0.33820   1.00
O2       0.83820    0.22650    0.27350   1.00
O2       0.77350    0.16180    0.27350   1.00
O2       0.77350    0.33820    0.22650   1.00
O2       0.83820    0.27350    0.22650   1.00
O2       0.77350    0.27350    0.16180   1.00
O2       0.66180    0.22650    0.22650   1.00
O2       0.72650    0.16180    0.22650   1.00
O2       0.72650    0.22650    0.16180   1.00
C1       0.75000    0.25000    0.35520   1.00
C1       0.75000    0.35520    0.25000   1.00
C1       0.64480    0.25000    0.25000   1.00
C1       0.85520    0.25000    0.25000   1.00
C1       0.75000    0.14480    0.25000   1.00
C1       0.75000    0.25000    0.14480   1.00
O1       0.25000    0.25000    0.25000   1.00
Zn1      0.28280    0.21720    0.21720   1.00
Zn1      0.21720    0.28280    0.21720   1.00
Zn1      0.21720    0.21720    0.28280   1.00
Zn1      0.28280    0.28280    0.28280   1.00
O2       0.27350    0.22650    0.16180   1.00
O2       0.27350    0.16180    0.22650   1.00
O2       0.33820    0.22650    0.22650   1.00
O2       0.22650    0.27350    0.16180   1.00
O2       0.16180    0.27350    0.22650   1.00
O2       0.22650    0.33820    0.22650   1.00
O2       0.22650    0.16180    0.27350   1.00
O2       0.16180    0.22650    0.27350   1.00
O2       0.22650    0.22650    0.33820   1.00
O2       0.33820    0.27350    0.27350   1.00
O2       0.27350    0.33820    0.27350   1.00
O2       0.27350    0.27350    0.33820   1.00
C1       0.25000    0.25000    0.14480   1.00
C1       0.25000    0.14480    0.25000   1.00
C1       0.35520    0.25000    0.25000   1.00
C1       0.14480    0.25000    0.25000   1.00
C1       0.25000    0.35520    0.25000   1.00
C1       0.25000    0.25000    0.35520   1.00
O1       0.75000    0.75000    0.25000   1.00
Zn1      0.78280    0.71720    0.21720   1.00
Zn1      0.71720    0.78280    0.21720   1.00
Zn1      0.71720    0.71720    0.28280   1.00
Zn1      0.78280    0.78280    0.28280   1.00
O2       0.77350    0.72650    0.16180   1.00
O2       0.77350    0.66180    0.22650   1.00
O2       0.83820    0.72650    0.22650   1.00
O2       0.72650    0.77350    0.16180   1.00
O2       0.66180    0.77350    0.22650   1.00
O2       0.72650    0.83820    0.22650   1.00
O2       0.72650    0.66180    0.27350   1.00
O2       0.66180    0.72650    0.27350   1.00
O2       0.72650    0.72650    0.33820   1.00
O2       0.83820    0.77350    0.27350   1.00
O2       0.77350    0.83820    0.27350   1.00
O2       0.77350    0.77350    0.33820   1.00
C1       0.75000    0.75000    0.14480   1.00
C1       0.75000    0.64480    0.25000   1.00
C1       0.85520    0.75000    0.25000   1.00
C1       0.64480    0.75000    0.25000   1.00
C1       0.75000    0.85520    0.25000   1.00
C1       0.75000    0.75000    0.35520   1.00
O1       0.75000    0.25000    0.75000   1.00
Zn1      0.78280    0.21720    0.71720   1.00
Zn1      0.71720    0.28280    0.71720   1.00
Zn1      0.71720    0.21720    0.78280   1.00
Zn1      0.78280    0.28280    0.78280   1.00
O2       0.77350    0.22650    0.66180   1.00
O2       0.77350    0.16180    0.72650   1.00
O2       0.83820    0.22650    0.72650   1.00
O2       0.72650    0.27350    0.66180   1.00
O2       0.66180    0.27350    0.72650   1.00
O2       0.72650    0.33820    0.72650   1.00
O2       0.72650    0.16180    0.77350   1.00
O2       0.66180    0.22650    0.77350   1.00
O2       0.72650    0.22650    0.83820   1.00
O2       0.83820    0.27350    0.77350   1.00
O2       0.77350    0.33820    0.77350   1.00
O2       0.77350    0.27350    0.83820   1.00
C1       0.75000    0.25000    0.64480   1.00
C1       0.75000    0.14480    0.75000   1.00
C1       0.85520    0.25000    0.75000   1.00
C1       0.64480    0.25000    0.75000   1.00
C1       0.75000    0.35520    0.75000   1.00
C1       0.75000    0.25000    0.85520   1.00
O1       0.25000    0.75000    0.75000   1.00
Zn1      0.28280    0.71720    0.71720   1.00
Zn1      0.21720    0.78280    0.71720   1.00
Zn1      0.21720    0.71720    0.78280   1.00
Zn1      0.28280    0.78280    0.78280   1.00
O2       0.27350    0.72650    0.66180   1.00
O2       0.27350    0.66180    0.72650   1.00
O2       0.33820    0.72650    0.72650   1.00
O2       0.22650    0.77350    0.66180   1.00
O2       0.16180    0.77350    0.72650   1.00
O2       0.22650    0.83820    0.72650   1.00
O2       0.22650    0.66180    0.77350   1.00
O2       0.16180    0.72650    0.77350   1.00
O2       0.22650    0.72650    0.83820   1.00
O2       0.33820    0.77350    0.77350   1.00
O2       0.27350    0.83820    0.77350   1.00
O2       0.27350    0.77350    0.83820   1.00
C1       0.25000    0.75000    0.64480   1.00
C1       0.25000    0.64480    0.75000   1.00
C1       0.35520    0.75000    0.75000   1.00
C1       0.14480    0.75000    0.75000   1.00
C1       0.25000    0.85520    0.75000   1.00
C1       0.25000    0.75000    0.85520   1.00
O1       1.00000    1.00000    1.00000   1.00
Zn1      0.96720    1.03280    1.03280   1.00
Zn1      1.03280    0.96720    1.03280   1.00
Zn1      1.03280    1.03280    0.96720   1.00
Zn1      0.96720    0.96720    0.96720   1.00
O2       0.97650    1.02350    1.08820   1.00
O2       0.97650    1.08820    1.02350   1.00
O2       0.91180    1.02350    1.02350   1.00
O2       1.02350    0.97650    1.08820   1.00
O2       1.08820    0.97650    1.02350   1.00
O2       1.02350    0.91180    1.02350   1.00
O2       1.02350    1.08820    0.97650   1.00
O2       1.08820    1.02350    0.97650   1.00
O2       1.02350    1.02350    0.91180   1.00
O2       0.91180    0.97650    0.97650   1.00
O2       0.97650    0.91180    0.97650   1.00
O2       0.97650    0.97650    0.91180   1.00
C1       1.00000    1.00000    1.10520   1.00
C1       1.00000    1.10520    1.00000   1.00
C1       0.89480    1.00000    1.00000   1.00
C1       1.10520    1.00000    1.00000   1.00
C1       1.00000    0.89480    1.00000   1.00
C1       1.00000    1.00000    0.89480   1.00
O1       0.50000    0.50000    1.00000   1.00
Zn1      0.46720    0.53280    1.03280   1.00
Zn1      0.53280    0.46720    1.03280   1.00
Zn1      0.53280    0.53280    0.96720   1.00
Zn1      0.46720    0.46720    0.96720   1.00
O2       0.47650    0.52350    1.08820   1.00
O2       0.47650    0.58820    1.02350   1.00
O2       0.41180    0.52350    1.02350   1.00
O2       0.52350    0.47650    1.08820   1.00
O2       0.58820    0.47650    1.02350   1.00
O2       0.52350    0.41180    1.02350   1.00
O2       0.52350    0.58820    0.97650   1.00
O2       0.58820    0.52350    0.97650   1.00
O2       0.52350    0.52350    0.91180   1.00
O2       0.41180    0.47650    0.97650   1.00
O2       0.47650    0.41180    0.97650   1.00
O2       0.47650    0.47650    0.91180   1.00
C1       0.50000    0.50000    1.10520   1.00
C1       0.50000    0.60520    1.00000   1.00
C1       0.39480    0.50000    1.00000   1.00
C1       0.60520    0.50000    1.00000   1.00
C1       0.50000    0.39480    1.00000   1.00
C1       0.50000    0.50000    0.89480   1.00
O1       0.50000    1.00000    0.50000   1.00
Zn1      0.46720    1.03280    0.53280   1.00
Zn1      0.53280    0.96720    0.53280   1.00
Zn1      0.53280    1.03280    0.46720   1.00
Zn1      0.46720    0.96720    0.46720   1.00
O2       0.47650    1.02350    0.58820   1.00
O2       0.47650    1.08820    0.52350   1.00
O2       0.41180    1.02350    0.52350   1.00
O2       0.52350    0.97650    0.58820   1.00
O2       0.58820    0.97650    0.52350   1.00
O2       0.52350    0.91180    0.52350   1.00
O2       0.52350    1.08820    0.47650   1.00
O2       0.58820    1.02350    0.47650   1.00
O2       0.52350    1.02350    0.41180   1.00
O2       0.41180    0.97650    0.47650   1.00
O2       0.47650    0.91180    0.47650   1.00
O2       0.47650    0.97650    0.41180   1.00
C1       0.50000    1.00000    0.60520   1.00
C1       0.50000    1.10520    0.50000   1.00
C1       0.39480    1.00000    0.50000   1.00
C1       0.60520    1.00000    0.50000   1.00
C1       0.50000    0.89480    0.50000   1.00
C1       0.50000    1.00000    0.39480   1.00
O1       1.00000    0.50000    0.50000   1.00
Zn1      0.96720    0.53280    0.53280   1.00
Zn1      1.03280    0.46720    0.53280   1.00
Zn1      1.03280    0.53280    0.46720   1.00
Zn1      0.96720    0.46720    0.46720   1.00
O2       0.97650    0.52350    0.58820   1.00
O2       0.97650    0.58820    0.52350   1.00
O2       0.91180    0.52350    0.52350   1.00
O2       1.02350    0.47650    0.58820   1.00
O2       1.08820    0.47650    0.52350   1.00
O2       1.02350    0.41180    0.52350   1.00
O2       1.02350    0.58820    0.47650   1.00
O2       1.08820    0.52350    0.47650   1.00
O2       1.02350    0.52350    0.41180   1.00
O2       0.91180    0.47650    0.47650   1.00
O2       0.97650    0.41180    0.47650   1.00
O2       0.97650    0.47650    0.41180   1.00
C1       1.00000    0.50000    0.60520   1.00
C1       1.00000    0.60520    0.50000   1.00
C1       0.89480    0.50000    0.50000   1.00
C1       1.10520    0.50000    0.50000   1.00
C1       1.00000    0.39480    0.50000   1.00
C1       1.00000    0.50000    0.39480   1.00
O1       0.50000    0.50000    0.50000   1.00
Zn1      0.53280    0.46720    0.46720   1.00
Zn1      0.46720    0.53280    0.46720   1.00
Zn1      0.46720    0.46720    0.53280   1.00
Zn1      0.53280    0.53280    0.53280   1.00
O2       0.52350    0.47650    0.41180   1.00
O2       0.52350    0.41180    0.47650   1.00
O2       0.58820    0.47650    0.47650   1.00
O2       0.47650    0.52350    0.41180   1.00
O2       0.41180    0.52350    0.47650   1.00
O2       0.47650    0.58820    0.47650   1.00
O2       0.47650    0.41180    0.52350   1.00
O2       0.41180    0.47650    0.52350   1.00
O2       0.47650    0.47650    0.58820   1.00
O2       0.58820    0.52350    0.52350   1.00
O2       0.52350    0.58820    0.52350   1.00
O2       0.52350    0.52350    0.58820   1.00
C1       0.50000    0.50000    0.39480   1.00
C1       0.50000    0.39480    0.50000   1.00
C1       0.60520    0.50000    0.50000   1.00
C1       0.39480    0.50000    0.50000   1.00
C1       0.50000    0.60520    0.50000   1.00
C1       0.50000    0.50000    0.60520   1.00
O1       1.00000    1.00000    0.50000   1.00
Zn1      1.03280    0.96720    0.46720   1.00
Zn1      0.96720    1.03280    0.46720   1.00
Zn1      0.96720    0.96720    0.53280   1.00
Zn1      1.03280    1.03280    0.53280   1.00
O2       1.02350    0.97650    0.41180   1.00
O2       1.02350    0.91180    0.47650   1.00
O2       1.08820    0.97650    0.47650   1.00
O2       0.97650    1.02350    0.41180   1.00
O2       0.91180    1.02350    0.47650   1.00
O2       0.97650    1.08820    0.47650   1.00
O2       0.97650    0.91180    0.52350   1.00
O2       0.91180    0.97650    0.52350   1.00
O2       0.97650    0.97650    0.58820   1.00
O2       1.08820    1.02350    0.52350   1.00
O2       1.02350    1.08820    0.52350   1.00
O2       1.02350    1.02350    0.58820   1.00
C1       1.00000    1.00000    0.39480   1.00
C1       1.00000    0.89480    0.50000   1.00
C1       1.10520    1.00000    0.50000   1.00
C1       0.89480    1.00000    0.50000   1.00
C1       1.00000    1.10520    0.50000   1.00
C1       1.00000    1.00000    0.60520   1.00
O1       1.00000    0.50000    1.00000   1.00
Zn1      1.03280    0.46720    0.96720   1.00
Zn1      0.96720    0.53280    0.96720   1.00
Zn1      0.96720    0.46720    1.03280   1.00
Zn1      1.03280    0.53280    1.03280   1.00
O2       1.02350    0.47650    0.91180   1.00
O2       1.02350    0.41180    0.97650   1.00
O2       1.08820    0.47650    0.97650   1.00
O2       0.97650    0.52350    0.91180   1.00
O2       0.91180    0.52350    0.97650   1.00
O2       0.97650    0.58820    0.97650   1.00
O2       0.97650    0.41180    1.02350   1.00
O2       0.91180    0.47650    1.02350   1.00
O2       0.97650    0.47650    1.08820   1.00
O2       1.08820    0.52350    1.02350   1.00
O2       1.02350    0.58820    1.02350   1.00
O2       1.02350    0.52350    1.08820   1.00
C1       1.00000    0.50000    0.89480   1.00
C1       1.00000    0.39480    1.00000   1.00
C1       1.10520    0.50000    1.00000   1.00
C1       0.89480    0.50000    1.00000   1.00
C1       1.00000    0.60520    1.00000   1.00
C1       1.00000    0.50000    1.10520   1.00
O1       0.50000    1.00000    1.00000   1.00
Zn1      0.53280    0.96720    0.96720   1.00
Zn1      0.46720    1.03280    0.96720   1.00
Zn1      0.46720    0.96720    1.03280   1.00
Zn1      0.53280    1.03280    1.03280   1.00
O2       0.52350    0.97650    0.91180   1.00
O2       0.52350    0.91180    0.97650   1.00
O2       0.58820    0.97650    0.97650   1.00
O2       0.47650    1.02350    0.91180   1.00
O2       0.41180    1.02350    0.97650   1.00
O2       0.47650    1.08820    0.97650   1.00
O2       0.47650    0.91180    1.02350   1.00
O2       0.41180    0.97650    1.02350   1.00
O2       0.47650    0.97650    1.08820   1.00
O2       0.58820    1.02350    1.02350   1.00
O2       0.52350    1.08820    1.02350   1.00
O2       0.52350    1.02350    1.08820   1.00
C1       0.50000    1.00000    0.89480   1.00
C1       0.50000    0.89480    1.00000   1.00
C1       0.60520    1.00000    1.00000   1.00
C1       0.39480    1.00000    1.00000   1.00
C1       0.50000    1.10520    1.00000   1.00
C1       0.50000    1.00000    1.10520   1.00
C4       0.75016    0.75035    0.97915   1.00
C4       0.74984    0.74965    1.02085   1.00
C3       0.78530    0.74850    0.95751   1.00
C3       0.77521    0.72535    1.04252   1.00
C3       0.71509    0.75207    0.95738   1.00
C3       0.72458    0.77404    1.04259   1.00
C2       0.75015    0.74993    0.89482   1.00
C2       0.75015    0.74993    1.10518   1.00
C3a      0.78545    0.74830    0.91599   1.00
C3       0.77529    0.72553    1.08382   1.00
C3       0.71516    0.75186    0.91611   1.00
C3a      0.72457    0.77431    1.08403   1.00
H1       0.81283    0.74752    0.97294   1.00
H1       0.79492    0.70575    1.02750   1.00
C5       0.82346    0.74650    0.89410   1.00
H1       0.79513    0.70645    1.09933   1.00
H1       0.68768    0.75291    0.90056   1.00
C5       0.69690    0.80095    1.10535   1.00
H1       0.70536    0.79402    1.02747   1.00
H1       0.68726    0.75280    0.97230   1.00
H2       0.66651    0.79203    1.09837   1.00
H2       0.70052    0.79825    1.13747   1.00
N1       0.70343    0.84156    1.09395   1.00
C6       0.69830    0.85679    1.05810   1.00
C6       0.71530    0.87064    1.11757   1.00
C6       0.70718    0.89604    1.05873   1.00
C6       0.71800    0.90484    1.09656   1.00
H3       0.68865    0.84048    1.03281   1.00
H3       0.72179    0.86724    1.14831   1.00
H3       0.70586    0.91603    1.03436   1.00
H3       0.72683    0.93304    1.10758   1.00
H2       0.81724    0.74604    0.86228   1.00
H2       0.84163    0.77268    0.90001   1.00
N1       0.84531    0.71168    0.90523   1.00
C6       0.85685    0.68031    0.88078   1.00
C6       0.85978    0.70210    0.94285   1.00
C6       0.87713    0.65332    0.90277   1.00
C6       0.87891    0.66670    0.94091   1.00
H3       0.85053    0.67811    0.84992   1.00
H3       0.85589    0.71975    0.96876   1.00
H3       0.88944    0.62633    0.89205   1.00
H3       0.89281    0.65191    0.96505   1.00
C4       0.75035    0.97915    0.75016   1.00
C4       0.74965    1.02085    0.74984   1.00
C3       0.74850    0.95751    0.78530   1.00
C3       0.72535    1.04252    0.77521   1.00
C3       0.75207    0.95738    0.71509   1.00
C3       0.77404    1.04259    0.72458   1.00
C2       0.74993    0.89482    0.75015   1.00
C2       0.74993    1.10518    0.75015   1.00
C3a      0.74830    0.91599    0.78545   1.00
C3       0.72553    1.08382    0.77529   1.00
C3       0.75186    0.91611    0.71516   1.00
C3a      0.77431    1.08403    0.72457   1.00
H1       0.74752    0.97294    0.81283   1.00
H1       0.70575    1.02750    0.79492   1.00
C5       0.74650    0.89410    0.82346   1.00
H1       0.70645    1.09933    0.79513   1.00
H1       0.75291    0.90056    0.68768   1.00
C5       0.80095    1.10535    0.69690   1.00
H1       0.79402    1.02747    0.70536   1.00
H1       0.75280    0.97230    0.68726   1.00
H2       0.79203    1.09837    0.66651   1.00
H2       0.79825    1.13747    0.70052   1.00
N1       0.84156    1.09395    0.70343   1.00
C6       0.85679    1.05810    0.69830   1.00
C6       0.87064    1.11757    0.71530   1.00
C6       0.89604    1.05873    0.70718   1.00
C6       0.90484    1.09656    0.71800   1.00
H3       0.84048    1.03281    0.68865   1.00
H3       0.86724    1.14831    0.72179   1.00
H3       0.91603    1.03436    0.70586   1.00
H3       0.93304    1.10758    0.72683   1.00
H2       0.74604    0.86228    0.81724   1.00
H2       0.77268    0.90001    0.84163   1.00
N1       0.71168    0.90523    0.84531   1.00
C6       0.68031    0.88078    0.85685   1.00
C6       0.70210    0.94285    0.85978   1.00
C6       0.65332    0.90277    0.87713   1.00
C6       0.66670    0.94091    0.87891   1.00
H3       0.67811    0.84992    0.85053   1.00
H3       0.71975    0.96876    0.85589   1.00
H3       0.62633    0.89205    0.88944   1.00
H3       0.65191    0.96505    0.89281   1.00
C4       0.52085    0.75016    0.74965   1.00
C4       0.47915    0.74984    0.75035   1.00
C3       0.54249    0.78530    0.75150   1.00
C3       0.45748    0.77521    0.77465   1.00
C3       0.54262    0.71509    0.74793   1.00
C3       0.45741    0.72458    0.72596   1.00
C2       0.60518    0.75015    0.75007   1.00
C2       0.39482    0.75015    0.75007   1.00
C3a      0.58401    0.78545    0.75170   1.00
C3       0.41618    0.77529    0.77447   1.00
C3       0.58389    0.71516    0.74814   1.00
C3a      0.41597    0.72457    0.72569   1.00
H1       0.52706    0.81283    0.75248   1.00
H1       0.47250    0.79492    0.79425   1.00
C5       0.60590    0.82346    0.75350   1.00
H1       0.40067    0.79513    0.79355   1.00
H1       0.59944    0.68768    0.74709   1.00
C5       0.39465    0.69690    0.69905   1.00
H1       0.47253    0.70536    0.70598   1.00
H1       0.52770    0.68726    0.74720   1.00
H2       0.40163    0.66651    0.70797   1.00
H2       0.36253    0.70052    0.70175   1.00
N1       0.40605    0.70343    0.65844   1.00
C6       0.44190    0.69830    0.64321   1.00
C6       0.38243    0.71530    0.62936   1.00
C6       0.44127    0.70718    0.60396   1.00
C6       0.40344    0.71800    0.59516   1.00
H3       0.46719    0.68865    0.65952   1.00
H3       0.35169    0.72179    0.63276   1.00
H3       0.46564    0.70586    0.58397   1.00
H3       0.39242    0.72683    0.56696   1.00
H2       0.63772    0.81724    0.75396   1.00
H2       0.59999    0.84163    0.72732   1.00
N1       0.59477    0.84531    0.78832   1.00
C6       0.61922    0.85685    0.81969   1.00
C6       0.55715    0.85978    0.79790   1.00
C6       0.59723    0.87713    0.84668   1.00
C6       0.55909    0.87891    0.83330   1.00
H3       0.65008    0.85053    0.82189   1.00
H3       0.53124    0.85589    0.78025   1.00
H3       0.60795    0.88944    0.87367   1.00
H3       0.53495    0.89281    0.84809   1.00
C4       0.97915    0.75016    0.75035   1.00
C4       1.02085    0.74984    0.74965   1.00
C3       0.95751    0.78530    0.74850   1.00
C3       1.04252    0.77521    0.72535   1.00
C3       0.95738    0.71509    0.75207   1.00
C3       1.04259    0.72458    0.77404   1.00
C2       0.89482    0.75015    0.74993   1.00
C2       1.10518    0.75015    0.74993   1.00
C3a      0.91599    0.78545    0.74830   1.00
C3       1.08382    0.77529    0.72553   1.00
C3       0.91611    0.71516    0.75186   1.00
C3a      1.08403    0.72457    0.77431   1.00
H1       0.97294    0.81283    0.74752   1.00
H1       1.02750    0.79492    0.70575   1.00
C5       0.89410    0.82346    0.74650   1.00
H1       1.09933    0.79513    0.70645   1.00
H1       0.90056    0.68768    0.75291   1.00
C5       1.10535    0.69690    0.80095   1.00
H1       1.02747    0.70536    0.79402   1.00
H1       0.97230    0.68726    0.75280   1.00
H2       1.09837    0.66651    0.79203   1.00
H2       1.13747    0.70052    0.79825   1.00
N1       1.09395    0.70343    0.84156   1.00
C6       1.05810    0.69830    0.85679   1.00
C6       1.11757    0.71530    0.87064   1.00
C6       1.05873    0.70718    0.89604   1.00
C6       1.09656    0.71800    0.90484   1.00
H3       1.03281    0.68865    0.84048   1.00
H3       1.14831    0.72179    0.86724   1.00
H3       1.03436    0.70586    0.91603   1.00
H3       1.10758    0.72683    0.93304   1.00
H2       0.86228    0.81724    0.74604   1.00
H2       0.90001    0.84163    0.77268   1.00
N1       0.90523    0.84531    0.71168   1.00
C6       0.88078    0.85685    0.68031   1.00
C6       0.94285    0.85978    0.70210   1.00
C6       0.90277    0.87713    0.65332   1.00
C6       0.94091    0.87891    0.66670   1.00
H3       0.84992    0.85053    0.67811   1.00
H3       0.96876    0.85589    0.71975   1.00
H3       0.89205    0.88944    0.62633   1.00
H3       0.96505    0.89281    0.65191   1.00
C4       0.74965    0.52085    0.75016   1.00
C4       0.75035    0.47915    0.74984   1.00
C3       0.75150    0.54249    0.78530   1.00
C3       0.77465    0.45748    0.77521   1.00
C3       0.74793    0.54262    0.71509   1.00
C3       0.72596    0.45741    0.72458   1.00
C2       0.75007    0.60518    0.75015   1.00
C2       0.75007    0.39482    0.75015   1.00
C3a      0.75170    0.58401    0.78545   1.00
C3       0.77447    0.41618    0.77529   1.00
C3       0.74814    0.58389    0.71516   1.00
C3a      0.72569    0.41597    0.72457   1.00
H1       0.75248    0.52706    0.81283   1.00
H1       0.79425    0.47250    0.79492   1.00
C5       0.75350    0.60590    0.82346   1.00
H1       0.79355    0.40067    0.79513   1.00
H1       0.74709    0.59944    0.68768   1.00
C5       0.69905    0.39465    0.69690   1.00
H1       0.70598    0.47253    0.70536   1.00
H1       0.74720    0.52770    0.68726   1.00
H2       0.70797    0.40163    0.66651   1.00
H2       0.70175    0.36253    0.70052   1.00
N1       0.65844    0.40605    0.70343   1.00
C6       0.64321    0.44190    0.69830   1.00
C6       0.62936    0.38243    0.71530   1.00
C6       0.60396    0.44127    0.70718   1.00
C6       0.59516    0.40344    0.71800   1.00
H3       0.65952    0.46719    0.68865   1.00
H3       0.63276    0.35169    0.72179   1.00
H3       0.58397    0.46564    0.70586   1.00
H3       0.56696    0.39242    0.72683   1.00
H2       0.75396    0.63772    0.81724   1.00
H2       0.72732    0.59999    0.84163   1.00
N1       0.78832    0.59477    0.84531   1.00
C6       0.81969    0.61922    0.85685   1.00
C6       0.79790    0.55715    0.85978   1.00
C6       0.84668    0.59723    0.87713   1.00
C6       0.83330    0.55909    0.87891   1.00
H3       0.82189    0.65008    0.85053   1.00
H3       0.78025    0.53124    0.85589   1.00
H3       0.87367    0.60795    0.88944   1.00
H3       0.84809    0.53495    0.89281   1.00
C4       0.75016    0.74965    0.52085   1.00
C4       0.74984    0.75035    0.47915   1.00
C3       0.78530    0.75150    0.54249   1.00
C3       0.77521    0.77465    0.45748   1.00
C3       0.71509    0.74793    0.54262   1.00
C3       0.72458    0.72596    0.45741   1.00
C2       0.75015    0.75007    0.60518   1.00
C2       0.75015    0.75007    0.39482   1.00
C3a      0.78545    0.75170    0.58401   1.00
C3       0.77529    0.77447    0.41618   1.00
C3       0.71516    0.74814    0.58389   1.00
C3a      0.72457    0.72569    0.41597   1.00
H1       0.81283    0.75248    0.52706   1.00
H1       0.79492    0.79425    0.47250   1.00
C5       0.82346    0.75350    0.60590   1.00
H1       0.79513    0.79355    0.40067   1.00
H1       0.68768    0.74709    0.59944   1.00
C5       0.69690    0.69905    0.39465   1.00
H1       0.70536    0.70598    0.47253   1.00
H1       0.68726    0.74720    0.52770   1.00
H2       0.66651    0.70797    0.40163   1.00
H2       0.70052    0.70175    0.36253   1.00
N1       0.70343    0.65844    0.40605   1.00
C6       0.69830    0.64321    0.44190   1.00
C6       0.71530    0.62936    0.38243   1.00
C6       0.70718    0.60396    0.44127   1.00
C6       0.71800    0.59516    0.40344   1.00
H3       0.68865    0.65952    0.46719   1.00
H3       0.72179    0.63276    0.35169   1.00
H3       0.70586    0.58397    0.46564   1.00
H3       0.72683    0.56696    0.39242   1.00
H2       0.81724    0.75396    0.63772   1.00
H2       0.84163    0.72732    0.59999   1.00
N1       0.84531    0.78832    0.59477   1.00
C6       0.85685    0.81969    0.61922   1.00
C6       0.85978    0.79790    0.55715   1.00
C6       0.87713    0.84668    0.59723   1.00
C6       0.87891    0.83330    0.55909   1.00
H3       0.85053    0.82189    0.65008   1.00
H3       0.85589    0.78025    0.53124   1.00
H3       0.88944    0.87367    0.60795   1.00
H3       0.89281    0.84809    0.53495   1.00
C4       0.25016    0.25035    0.97915   1.00
C4       0.24984    0.24965    1.02085   1.00
C3       0.28530    0.24850    0.95751   1.00
C3       0.27521    0.22535    1.04252   1.00
C3       0.21509    0.25207    0.95738   1.00
C3       0.22458    0.27404    1.04259   1.00
C2       0.25015    0.24993    0.89482   1.00
C2       0.25015    0.24993    1.10518   1.00
C3a      0.28545    0.24830    0.91599   1.00
C3       0.27529    0.22553    1.08382   1.00
C3       0.21516    0.25186    0.91611   1.00
C3a      0.22457    0.27431    1.08403   1.00
H1       0.31283    0.24752    0.97294   1.00
H1       0.29492    0.20575    1.02750   1.00
C5       0.32346    0.24650    0.89410   1.00
H1       0.29513    0.20645    1.09933   1.00
H1       0.18768    0.25291    0.90056   1.00
C5       0.19690    0.30095    1.10535   1.00
H1       0.20536    0.29402    1.02747   1.00
H1       0.18726    0.25280    0.97230   1.00
H2       0.16651    0.29203    1.09837   1.00
H2       0.20052    0.29825    1.13747   1.00
N1       0.20343    0.34156    1.09395   1.00
C6       0.19830    0.35679    1.05810   1.00
C6       0.21530    0.37064    1.11757   1.00
C6       0.20718    0.39604    1.05873   1.00
C6       0.21800    0.40484    1.09656   1.00
H3       0.18865    0.34048    1.03281   1.00
H3       0.22179    0.36724    1.14831   1.00
H3       0.20586    0.41603    1.03436   1.00
H3       0.22683    0.43304    1.10758   1.00
H2       0.31724    0.24604    0.86228   1.00
H2       0.34163    0.27268    0.90001   1.00
N1       0.34531    0.21168    0.90523   1.00
C6       0.35685    0.18031    0.88078   1.00
C6       0.35978    0.20210    0.94285   1.00
C6       0.37713    0.15332    0.90277   1.00
C6       0.37891    0.16670    0.94091   1.00
H3       0.35053    0.17811    0.84992   1.00
H3       0.35589    0.21975    0.96876   1.00
H3       0.38944    0.12633    0.89205   1.00
H3       0.39281    0.15191    0.96505   1.00
C4       0.25035    0.47915    0.75016   1.00
C4       0.24965    0.52085    0.74984   1.00
C3       0.24850    0.45751    0.78530   1.00
C3       0.22535    0.54252    0.77521   1.00
C3       0.25207    0.45738    0.71509   1.00
C3       0.27404    0.54259    0.72458   1.00
C2       0.24993    0.39482    0.75015   1.00
C2       0.24993    0.60518    0.75015   1.00
C3a      0.24830    0.41599    0.78545   1.00
C3       0.22553    0.58382    0.77529   1.00
C3       0.25186    0.41611    0.71516   1.00
C3a      0.27431    0.58403    0.72457   1.00
H1       0.24752    0.47294    0.81283   1.00
H1       0.20575    0.52750    0.79492   1.00
C5       0.24650    0.39410    0.82346   1.00
H1       0.20645    0.59933    0.79513   1.00
H1       0.25291    0.40056    0.68768   1.00
C5       0.30095    0.60535    0.69690   1.00
H1       0.29402    0.52747    0.70536   1.00
H1       0.25280    0.47230    0.68726   1.00
H2       0.29203    0.59837    0.66651   1.00
H2       0.29825    0.63747    0.70052   1.00
N1       0.34156    0.59395    0.70343   1.00
C6       0.35679    0.55810    0.69830   1.00
C6       0.37064    0.61757    0.71530   1.00
C6       0.39604    0.55873    0.70718   1.00
C6       0.40484    0.59656    0.71800   1.00
H3       0.34048    0.53281    0.68865   1.00
H3       0.36724    0.64831    0.72179   1.00
H3       0.41603    0.53436    0.70586   1.00
H3       0.43304    0.60758    0.72683   1.00
H2       0.24604    0.36228    0.81724   1.00
H2       0.27268    0.40001    0.84163   1.00
N1       0.21168    0.40523    0.84531   1.00
C6       0.18031    0.38078    0.85685   1.00
C6       0.20210    0.44285    0.85978   1.00
C6       0.15332    0.40277    0.87713   1.00
C6       0.16670    0.44091    0.87891   1.00
H3       0.17811    0.34992    0.85053   1.00
H3       0.21975    0.46876    0.85589   1.00
H3       0.12633    0.39205    0.88944   1.00
H3       0.15191    0.46505    0.89281   1.00
C4       0.02085    0.25016    0.74965   1.00
C4       -0.02085   0.24984    0.75035   1.00
C3       0.04249    0.28530    0.75150   1.00
C3       -0.04252   0.27521    0.77465   1.00
C3       0.04262    0.21509    0.74793   1.00
C3       -0.04259   0.22458    0.72596   1.00
C2       0.10518    0.25015    0.75007   1.00
C2       -0.10518   0.25015    0.75007   1.00
C3a      0.08401    0.28545    0.75170   1.00
C3       -0.08382   0.27529    0.77447   1.00
C3       0.08389    0.21516    0.74814   1.00
C3a      -0.08403   0.22457    0.72569   1.00
H1       0.02706    0.31283    0.75248   1.00
H1       -0.02750   0.29492    0.79425   1.00
C5       0.10590    0.32346    0.75350   1.00
H1       -0.09933   0.29513    0.79355   1.00
H1       0.09944    0.18768    0.74709   1.00
C5       -0.10535   0.19690    0.69905   1.00
H1       -0.02747   0.20536    0.70598   1.00
H1       0.02770    0.18726    0.74720   1.00
H2       -0.09837   0.16651    0.70797   1.00
H2       -0.13747   0.20052    0.70175   1.00
N1       -0.09395   0.20343    0.65844   1.00
C6       -0.05810   0.19830    0.64321   1.00
C6       -0.11757   0.21530    0.62936   1.00
C6       -0.05873   0.20718    0.60396   1.00
C6       -0.09656   0.21800    0.59516   1.00
H3       -0.03281   0.18865    0.65952   1.00
H3       -0.14831   0.22179    0.63276   1.00
H3       -0.03436   0.20586    0.58397   1.00
H3       -0.10758   0.22683    0.56696   1.00
H2       0.13772    0.31724    0.75396   1.00
H2       0.09999    0.34163    0.72732   1.00
N1       0.09477    0.34531    0.78832   1.00
C6       0.11922    0.35685    0.81969   1.00
C6       0.05715    0.35978    0.79790   1.00
C6       0.09723    0.37713    0.84668   1.00
C6       0.05909    0.37891    0.83330   1.00
H3       0.15008    0.35053    0.82189   1.00
H3       0.03124    0.35589    0.78025   1.00
H3       0.10795    0.38944    0.87367   1.00
H3       0.03495    0.39281    0.84809   1.00
C4       0.47915    0.25016    0.75035   1.00
C4       0.52085    0.24984    0.74965   1.00
C3       0.45751    0.28530    0.74850   1.00
C3       0.54252    0.27521    0.72535   1.00
C3       0.45738    0.21509    0.75207   1.00
C3       0.54259    0.22458    0.77404   1.00
C2       0.39482    0.25015    0.74993   1.00
C2       0.60518    0.25015    0.74993   1.00
C3a      0.41599    0.28545    0.74830   1.00
C3       0.58382    0.27529    0.72553   1.00
C3       0.41611    0.21516    0.75186   1.00
C3a      0.58403    0.22457    0.77431   1.00
H1       0.47294    0.31283    0.74752   1.00
H1       0.52750    0.29492    0.70575   1.00
C5       0.39410    0.32346    0.74650   1.00
H1       0.59933    0.29513    0.70645   1.00
H1       0.40056    0.18768    0.75291   1.00
C5       0.60535    0.19690    0.80095   1.00
H1       0.52747    0.20536    0.79402   1.00
H1       0.47230    0.18726    0.75280   1.00
H2       0.59837    0.16651    0.79203   1.00
H2       0.63747    0.20052    0.79825   1.00
N1       0.59395    0.20343    0.84156   1.00
C6       0.55810    0.19830    0.85679   1.00
C6       0.61757    0.21530    0.87064   1.00
C6       0.55873    0.20718    0.89604   1.00
C6       0.59656    0.21800    0.90484   1.00
H3       0.53281    0.18865    0.84048   1.00
H3       0.64831    0.22179    0.86724   1.00
H3       0.53436    0.20586    0.91603   1.00
H3       0.60758    0.22683    0.93304   1.00
H2       0.36228    0.31724    0.74604   1.00
H2       0.40001    0.34163    0.77268   1.00
N1       0.40523    0.34531    0.71168   1.00
C6       0.38078    0.35685    0.68031   1.00
C6       0.44285    0.35978    0.70210   1.00
C6       0.40277    0.37713    0.65332   1.00
C6       0.44091    0.37891    0.66670   1.00
H3       0.34992    0.35053    0.67811   1.00
H3       0.46876    0.35589    0.71975   1.00
H3       0.39205    0.38944    0.62633   1.00
H3       0.46505    0.39281    0.65191   1.00
C4       0.24965    0.02085    0.75016   1.00
C4       0.25035    -0.02085   0.74984   1.00
C3       0.25150    0.04249    0.78530   1.00
C3       0.27465    -0.04252   0.77521   1.00
C3       0.24793    0.04262    0.71509   1.00
C3       0.22596    -0.04259   0.72458   1.00
C2       0.25007    0.10518    0.75015   1.00
C2       0.25007    -0.10518   0.75015   1.00
C3a      0.25170    0.08401    0.78545   1.00
C3       0.27447    -0.08382   0.77529   1.00
C3       0.24814    0.08389    0.71516   1.00
C3a      0.22569    -0.08403   0.72457   1.00
H1       0.25248    0.02706    0.81283   1.00
H1       0.29425    -0.02750   0.79492   1.00
C5       0.25350    0.10590    0.82346   1.00
H1       0.29355    -0.09933   0.79513   1.00
H1       0.24709    0.09944    0.68768   1.00
C5       0.19905    -0.10535   0.69690   1.00
H1       0.20598    -0.02747   0.70536   1.00
H1       0.24720    0.02770    0.68726   1.00
H2       0.20797    -0.09837   0.66651   1.00
H2       0.20175    -0.13747   0.70052   1.00
N1       0.15844    -0.09395   0.70343   1.00
C6       0.14321    -0.05810   0.69830   1.00
C6       0.12936    -0.11757   0.71530   1.00
C6       0.10396    -0.05873   0.70718   1.00
C6       0.09516    -0.09656   0.71800   1.00
H3       0.15952    -0.03281   0.68865   1.00
H3       0.13276    -0.14831   0.72179   1.00
H3       0.08397    -0.03436   0.70586   1.00
H3       0.06696    -0.10758   0.72683   1.00
H2       0.25396    0.13772    0.81724   1.00
H2       0.22732    0.09999    0.84163   1.00
N1       0.28832    0.09477    0.84531   1.00
C6       0.31969    0.11922    0.85685   1.00
C6       0.29790    0.05715    0.85978   1.00
C6       0.34668    0.09723    0.87713   1.00
C6       0.33330    0.05909    0.87891   1.00
H3       0.32189    0.15008    0.85053   1.00
H3       0.28025    0.03124    0.85589   1.00
H3       0.37367    0.10795    0.88944   1.00
H3       0.34809    0.03495    0.89281   1.00
C4       0.25016    0.24965    0.52085   1.00
C4       0.24984    0.25035    0.47915   1.00
C3       0.28530    0.25150    0.54249   1.00
C3       0.27521    0.27465    0.45748   1.00
C3       0.21509    0.24793    0.54262   1.00
C3       0.22458    0.22596    0.45741   1.00
C2       0.25015    0.25007    0.60518   1.00
C2       0.25015    0.25007    0.39482   1.00
C3a      0.28545    0.25170    0.58401   1.00
C3       0.27529    0.27447    0.41618   1.00
C3       0.21516    0.24814    0.58389   1.00
C3a      0.22457    0.22569    0.41597   1.00
H1       0.31283    0.25248    0.52706   1.00
H1       0.29492    0.29425    0.47250   1.00
C5       0.32346    0.25350    0.60590   1.00
H1       0.29513    0.29355    0.40067   1.00
H1       0.18768    0.24709    0.59944   1.00
C5       0.19690    0.19905    0.39465   1.00
H1       0.20536    0.20598    0.47253   1.00
H1       0.18726    0.24720    0.52770   1.00
H2       0.16651    0.20797    0.40163   1.00
H2       0.20052    0.20175    0.36253   1.00
N1       0.20343    0.15844    0.40605   1.00
C6       0.19830    0.14321    0.44190   1.00
C6       0.21530    0.12936    0.38243   1.00
C6       0.20718    0.10396    0.44127   1.00
C6       0.21800    0.09516    0.40344   1.00
H3       0.18865    0.15952    0.46719   1.00
H3       0.22179    0.13276    0.35169   1.00
H3       0.20586    0.08397    0.46564   1.00
H3       0.22683    0.06696    0.39242   1.00
H2       0.31724    0.25396    0.63772   1.00
H2       0.34163    0.22732    0.59999   1.00
N1       0.34531    0.28832    0.59477   1.00
C6       0.35685    0.31969    0.61922   1.00
C6       0.35978    0.29790    0.55715   1.00
C6       0.37713    0.34668    0.59723   1.00
C6       0.37891    0.33330    0.55909   1.00
H3       0.35053    0.32189    0.65008   1.00
H3       0.35589    0.28025    0.53124   1.00
H3       0.38944    0.37367    0.60795   1.00
H3       0.39281    0.34809    0.53495   1.00
C4       0.25016    0.75035    0.47915   1.00
C4       0.24984    0.74965    0.52085   1.00
C3       0.28530    0.74850    0.45751   1.00
C3       0.27521    0.72535    0.54252   1.00
C3       0.21509    0.75207    0.45738   1.00
C3       0.22458    0.77404    0.54259   1.00
C2       0.25015    0.74993    0.39482   1.00
C2       0.25015    0.74993    0.60518   1.00
C3a      0.28545    0.74830    0.41599   1.00
C3       0.27529    0.72553    0.58382   1.00
C3       0.21516    0.75186    0.41611   1.00
C3a      0.22457    0.77431    0.58403   1.00
H1       0.31283    0.74752    0.47294   1.00
H1       0.29492    0.70575    0.52750   1.00
C5       0.32346    0.74650    0.39410   1.00
H1       0.29513    0.70645    0.59933   1.00
H1       0.18768    0.75291    0.40056   1.00
C5       0.19690    0.80095    0.60535   1.00
H1       0.20536    0.79402    0.52747   1.00
H1       0.18726    0.75280    0.47230   1.00
H2       0.16651    0.79203    0.59837   1.00
H2       0.20052    0.79825    0.63747   1.00
N1       0.20343    0.84156    0.59395   1.00
C6       0.19830    0.85679    0.55810   1.00
C6       0.21530    0.87064    0.61757   1.00
C6       0.20718    0.89604    0.55873   1.00
C6       0.21800    0.90484    0.59656   1.00
H3       0.18865    0.84048    0.53281   1.00
H3       0.22179    0.86724    0.64831   1.00
H3       0.20586    0.91603    0.53436   1.00
H3       0.22683    0.93304    0.60758   1.00
H2       0.31724    0.74604    0.36228   1.00
H2       0.34163    0.77268    0.40001   1.00
N1       0.34531    0.71168    0.40523   1.00
C6       0.35685    0.68031    0.38078   1.00
C6       0.35978    0.70210    0.44285   1.00
C6       0.37713    0.65332    0.40277   1.00
C6       0.37891    0.66670    0.44091   1.00
H3       0.35053    0.67811    0.34992   1.00
H3       0.35589    0.71975    0.46876   1.00
H3       0.38944    0.62633    0.39205   1.00
H3       0.39281    0.65191    0.46505   1.00
C4       0.25035    0.97915    0.25016   1.00
C4       0.24965    1.02085    0.24984   1.00
C3       0.24850    0.95751    0.28530   1.00
C3       0.22535    1.04252    0.27521   1.00
C3       0.25207    0.95738    0.21509   1.00
C3       0.27404    1.04259    0.22458   1.00
C2       0.24993    0.89482    0.25015   1.00
C2       0.24993    1.10518    0.25015   1.00
C3a      0.24830    0.91599    0.28545   1.00
C3       0.22553    1.08382    0.27529   1.00
C3       0.25186    0.91611    0.21516   1.00
C3a      0.27431    1.08403    0.22457   1.00
H1       0.24752    0.97294    0.31283   1.00
H1       0.20575    1.02750    0.29492   1.00
C5       0.24650    0.89410    0.32346   1.00
H1       0.20645    1.09933    0.29513   1.00
H1       0.25291    0.90056    0.18768   1.00
C5       0.30095    1.10535    0.19690   1.00
H1       0.29402    1.02747    0.20536   1.00
H1       0.25280    0.97230    0.18726   1.00
H2       0.29203    1.09837    0.16651   1.00
H2       0.29825    1.13747    0.20052   1.00
N1       0.34156    1.09395    0.20343   1.00
C6       0.35679    1.05810    0.19830   1.00
C6       0.37064    1.11757    0.21530   1.00
C6       0.39604    1.05873    0.20718   1.00
C6       0.40484    1.09656    0.21800   1.00
H3       0.34048    1.03281    0.18865   1.00
H3       0.36724    1.14831    0.22179   1.00
H3       0.41603    1.03436    0.20586   1.00
H3       0.43304    1.10758    0.22683   1.00
H2       0.24604    0.86228    0.31724   1.00
H2       0.27268    0.90001    0.34163   1.00
N1       0.21168    0.90523    0.34531   1.00
C6       0.18031    0.88078    0.35685   1.00
C6       0.20210    0.94285    0.35978   1.00
C6       0.15332    0.90277    0.37713   1.00
C6       0.16670    0.94091    0.37891   1.00
H3       0.17811    0.84992    0.35053   1.00
H3       0.21975    0.96876    0.35589   1.00
H3       0.12633    0.89205    0.38944   1.00
H3       0.15191    0.96505    0.39281   1.00
C4       0.02085    0.75016    0.24965   1.00
C4       -0.02085   0.74984    0.25035   1.00
C3       0.04249    0.78530    0.25150   1.00
C3       -0.04252   0.77521    0.27465   1.00
C3       0.04262    0.71509    0.24793   1.00
C3       -0.04259   0.72458    0.22596   1.00
C2       0.10518    0.75015    0.25007   1.00
C2       -0.10518   0.75015    0.25007   1.00
C3a      0.08401    0.78545    0.25170   1.00
C3       -0.08382   0.77529    0.27447   1.00
C3       0.08389    0.71516    0.24814   1.00
C3a      -0.08403   0.72457    0.22569   1.00
H1       0.02706    0.81283    0.25248   1.00
H1       -0.02750   0.79492    0.29425   1.00
C5       0.10590    0.82346    0.25350   1.00
H1       -0.09933   0.79513    0.29355   1.00
H1       0.09944    0.68768    0.24709   1.00
C5       -0.10535   0.69690    0.19905   1.00
H1       -0.02747   0.70536    0.20598   1.00
H1       0.02770    0.68726    0.24720   1.00
H2       -0.09837   0.66651    0.20797   1.00
H2       -0.13747   0.70052    0.20175   1.00
N1       -0.09395   0.70343    0.15844   1.00
C6       -0.05810   0.69830    0.14321   1.00
C6       -0.11757   0.71530    0.12936   1.00
C6       -0.05873   0.70718    0.10396   1.00
C6       -0.09656   0.71800    0.09516   1.00
H3       -0.03281   0.68865    0.15952   1.00
H3       -0.14831   0.72179    0.13276   1.00
H3       -0.03436   0.70586    0.08397   1.00
H3       -0.10758   0.72683    0.06696   1.00
H2       0.13772    0.81724    0.25396   1.00
H2       0.09999    0.84163    0.22732   1.00
N1       0.09477    0.84531    0.28832   1.00
C6       0.11922    0.85685    0.31969   1.00
C6       0.05715    0.85978    0.29790   1.00
C6       0.09723    0.87713    0.34668   1.00
C6       0.05909    0.87891    0.33330   1.00
H3       0.15008    0.85053    0.32189   1.00
H3       0.03124    0.85589    0.28025   1.00
H3       0.10795    0.88944    0.37367   1.00
H3       0.03495    0.89281    0.34809   1.00
C4       0.47915    0.75016    0.25035   1.00
C4       0.52085    0.74984    0.24965   1.00
C3       0.45751    0.78530    0.24850   1.00
C3       0.54252    0.77521    0.22535   1.00
C3       0.45738    0.71509    0.25207   1.00
C3       0.54259    0.72458    0.27404   1.00
C2       0.39482    0.75015    0.24993   1.00
C2       0.60518    0.75015    0.24993   1.00
C3a      0.41599    0.78545    0.24830   1.00
C3       0.58382    0.77529    0.22553   1.00
C3       0.41611    0.71516    0.25186   1.00
C3a      0.58403    0.72457    0.27431   1.00
H1       0.47294    0.81283    0.24752   1.00
H1       0.52750    0.79492    0.20575   1.00
C5       0.39410    0.82346    0.24650   1.00
H1       0.59933    0.79513    0.20645   1.00
H1       0.40056    0.68768    0.25291   1.00
C5       0.60535    0.69690    0.30095   1.00
H1       0.52747    0.70536    0.29402   1.00
H1       0.47230    0.68726    0.25280   1.00
H2       0.59837    0.66651    0.29203   1.00
H2       0.63747    0.70052    0.29825   1.00
N1       0.59395    0.70343    0.34156   1.00
C6       0.55810    0.69830    0.35679   1.00
C6       0.61757    0.71530    0.37064   1.00
C6       0.55873    0.70718    0.39604   1.00
C6       0.59656    0.71800    0.40484   1.00
H3       0.53281    0.68865    0.34048   1.00
H3       0.64831    0.72179    0.36724   1.00
H3       0.53436    0.70586    0.41603   1.00
H3       0.60758    0.72683    0.43304   1.00
H2       0.36228    0.81724    0.24604   1.00
H2       0.40001    0.84163    0.27268   1.00
N1       0.40523    0.84531    0.21168   1.00
C6       0.38078    0.85685    0.18031   1.00
C6       0.44285    0.85978    0.20210   1.00
C6       0.40277    0.87713    0.15332   1.00
C6       0.44091    0.87891    0.16670   1.00
H3       0.34992    0.85053    0.17811   1.00
H3       0.46876    0.85589    0.21975   1.00
H3       0.39205    0.88944    0.12633   1.00
H3       0.46505    0.89281    0.15191   1.00
C4       0.24965    0.52085    0.25016   1.00
C4       0.25035    0.47915    0.24984   1.00
C3       0.25150    0.54249    0.28530   1.00
C3       0.27465    0.45748    0.27521   1.00
C3       0.24793    0.54262    0.21509   1.00
C3       0.22596    0.45741    0.22458   1.00
C2       0.25007    0.60518    0.25015   1.00
C2       0.25007    0.39482    0.25015   1.00
C3a      0.25170    0.58401    0.28545   1.00
C3       0.27447    0.41618    0.27529   1.00
C3       0.24814    0.58389    0.21516   1.00
C3a      0.22569    0.41597    0.22457   1.00
H1       0.25248    0.52706    0.31283   1.00
H1       0.29425    0.47250    0.29492   1.00
C5       0.25350    0.60590    0.32346   1.00
H1       0.29355    0.40067    0.29513   1.00
H1       0.24709    0.59944    0.18768   1.00
C5       0.19905    0.39465    0.19690   1.00
H1       0.20598    0.47253    0.20536   1.00
H1       0.24720    0.52770    0.18726   1.00
H2       0.20797    0.40163    0.16651   1.00
H2       0.20175    0.36253    0.20052   1.00
N1       0.15844    0.40605    0.20343   1.00
C6       0.14321    0.44190    0.19830   1.00
C6       0.12936    0.38243    0.21530   1.00
C6       0.10396    0.44127    0.20718   1.00
C6       0.09516    0.40344    0.21800   1.00
H3       0.15952    0.46719    0.18865   1.00
H3       0.13276    0.35169    0.22179   1.00
H3       0.08397    0.46564    0.20586   1.00
H3       0.06696    0.39242    0.22683   1.00
H2       0.25396    0.63772    0.31724   1.00
H2       0.22732    0.59999    0.34163   1.00
N1       0.28832    0.59477    0.34531   1.00
C6       0.31969    0.61922    0.35685   1.00
C6       0.29790    0.55715    0.35978   1.00
C6       0.34668    0.59723    0.37713   1.00
C6       0.33330    0.55909    0.37891   1.00
H3       0.32189    0.65008    0.35053   1.00
H3       0.28025    0.53124    0.35589   1.00
H3       0.37367    0.60795    0.38944   1.00
H3       0.34809    0.53495    0.39281   1.00
C4       0.25016    0.74965    0.02085   1.00
C4       0.24984    0.75035    -0.02085   1.00
C3       0.28530    0.75150    0.04249   1.00
C3       0.27521    0.77465    -0.04252   1.00
C3       0.21509    0.74793    0.04262   1.00
C3       0.22458    0.72596    -0.04259   1.00
C2       0.25015    0.75007    0.10518   1.00
C2       0.25015    0.75007    -0.10518   1.00
C3a      0.28545    0.75170    0.08401   1.00
C3       0.27529    0.77447    -0.08382   1.00
C3       0.21516    0.74814    0.08389   1.00
C3a      0.22457    0.72569    -0.08403   1.00
H1       0.31283    0.75248    0.02706   1.00
H1       0.29492    0.79425    -0.02750   1.00
C5       0.32346    0.75350    0.10590   1.00
H1       0.29513    0.79355    -0.09933   1.00
H1       0.18768    0.74709    0.09944   1.00
C5       0.19690    0.69905    -0.10535   1.00
H1       0.20536    0.70598    -0.02747   1.00
H1       0.18726    0.74720    0.02770   1.00
H2       0.16651    0.70797    -0.09837   1.00
H2       0.20052    0.70175    -0.13747   1.00
N1       0.20343    0.65844    -0.09395   1.00
C6       0.19830    0.64321    -0.05810   1.00
C6       0.21530    0.62936    -0.11757   1.00
C6       0.20718    0.60396    -0.05873   1.00
C6       0.21800    0.59516    -0.09656   1.00
H3       0.18865    0.65952    -0.03281   1.00
H3       0.22179    0.63276    -0.14831   1.00
H3       0.20586    0.58397    -0.03436   1.00
H3       0.22683    0.56696    -0.10758   1.00
H2       0.31724    0.75396    0.13772   1.00
H2       0.34163    0.72732    0.09999   1.00
N1       0.34531    0.78832    0.09477   1.00
C6       0.35685    0.81969    0.11922   1.00
C6       0.35978    0.79790    0.05715   1.00
C6       0.37713    0.84668    0.09723   1.00
C6       0.37891    0.83330    0.05909   1.00
H3       0.35053    0.82189    0.15008   1.00
H3       0.35589    0.78025    0.03124   1.00
H3       0.38944    0.87367    0.10795   1.00
H3       0.39281    0.84809    0.03495   1.00
C4       0.75016    0.25035    0.47915   1.00
C4       0.74984    0.24965    0.52085   1.00
C3       0.78530    0.24850    0.45751   1.00
C3       0.77521    0.22535    0.54252   1.00
C3       0.71509    0.25207    0.45738   1.00
C3       0.72458    0.27404    0.54259   1.00
C2       0.75015    0.24993    0.39482   1.00
C2       0.75015    0.24993    0.60518   1.00
C3a      0.78545    0.24830    0.41599   1.00
C3       0.77529    0.22553    0.58382   1.00
C3       0.71516    0.25186    0.41611   1.00
C3a      0.72457    0.27431    0.58403   1.00
H1       0.81283    0.24752    0.47294   1.00
H1       0.79492    0.20575    0.52750   1.00
C5       0.82346    0.24650    0.39410   1.00
H1       0.79513    0.20645    0.59933   1.00
H1       0.68768    0.25291    0.40056   1.00
C5       0.69690    0.30095    0.60535   1.00
H1       0.70536    0.29402    0.52747   1.00
H1       0.68726    0.25280    0.47230   1.00
H2       0.66651    0.29203    0.59837   1.00
H2       0.70052    0.29825    0.63747   1.00
N1       0.70343    0.34156    0.59395   1.00
C6       0.69830    0.35679    0.55810   1.00
C6       0.71530    0.37064    0.61757   1.00
C6       0.70718    0.39604    0.55873   1.00
C6       0.71800    0.40484    0.59656   1.00
H3       0.68865    0.34048    0.53281   1.00
H3       0.72179    0.36724    0.64831   1.00
H3       0.70586    0.41603    0.53436   1.00
H3       0.72683    0.43304    0.60758   1.00
H2       0.81724    0.24604    0.36228   1.00
H2       0.84163    0.27268    0.40001   1.00
N1       0.84531    0.21168    0.40523   1.00
C6       0.85685    0.18031    0.38078   1.00
C6       0.85978    0.20210    0.44285   1.00
C6       0.87713    0.15332    0.40277   1.00
C6       0.87891    0.16670    0.44091   1.00
H3       0.85053    0.17811    0.34992   1.00
H3       0.85589    0.21975    0.46876   1.00
H3       0.88944    0.12633    0.39205   1.00
H3       0.89281    0.15191    0.46505   1.00
C4       0.75035    0.47915    0.25016   1.00
C4       0.74965    0.52085    0.24984   1.00
C3       0.74850    0.45751    0.28530   1.00
C3       0.72535    0.54252    0.27521   1.00
C3       0.75207    0.45738    0.21509   1.00
C3       0.77404    0.54259    0.22458   1.00
C2       0.74993    0.39482    0.25015   1.00
C2       0.74993    0.60518    0.25015   1.00
C3a      0.74830    0.41599    0.28545   1.00
C3       0.72553    0.58382    0.27529   1.00
C3       0.75186    0.41611    0.21516   1.00
C3a      0.77431    0.58403    0.22457   1.00
H1       0.74752    0.47294    0.31283   1.00
H1       0.70575    0.52750    0.29492   1.00
C5       0.74650    0.39410    0.32346   1.00
H1       0.70645    0.59933    0.29513   1.00
H1       0.75291    0.40056    0.18768   1.00
C5       0.80095    0.60535    0.19690   1.00
H1       0.79402    0.52747    0.20536   1.00
H1       0.75280    0.47230    0.18726   1.00
H2       0.79203    0.59837    0.16651   1.00
H2       0.79825    0.63747    0.20052   1.00
N1       0.84156    0.59395    0.20343   1.00
C6       0.85679    0.55810    0.19830   1.00
C6       0.87064    0.61757    0.21530   1.00
C6       0.89604    0.55873    0.20718   1.00
C6       0.90484    0.59656    0.21800   1.00
H3       0.84048    0.53281    0.18865   1.00
H3       0.86724    0.64831    0.22179   1.00
H3       0.91603    0.53436    0.20586   1.00
H3       0.93304    0.60758    0.22683   1.00
H2       0.74604    0.36228    0.31724   1.00
H2       0.77268    0.40001    0.34163   1.00
N1       0.71168    0.40523    0.34531   1.00
C6       0.68031    0.38078    0.35685   1.00
C6       0.70210    0.44285    0.35978   1.00
C6       0.65332    0.40277    0.37713   1.00
C6       0.66670    0.44091    0.37891   1.00
H3       0.67811    0.34992    0.35053   1.00
H3       0.71975    0.46876    0.35589   1.00
H3       0.62633    0.39205    0.38944   1.00
H3       0.65191    0.46505    0.39281   1.00
C4       0.52085    0.25016    0.24965   1.00
C4       0.47915    0.24984    0.25035   1.00
C3       0.54249    0.28530    0.25150   1.00
C3       0.45748    0.27521    0.27465   1.00
C3       0.54262    0.21509    0.24793   1.00
C3       0.45741    0.22458    0.22596   1.00
C2       0.60518    0.25015    0.25007   1.00
C2       0.39482    0.25015    0.25007   1.00
C3a      0.58401    0.28545    0.25170   1.00
C3       0.41618    0.27529    0.27447   1.00
C3       0.58389    0.21516    0.24814   1.00
C3a      0.41597    0.22457    0.22569   1.00
H1       0.52706    0.31283    0.25248   1.00
H1       0.47250    0.29492    0.29425   1.00
C5       0.60590    0.32346    0.25350   1.00
H1       0.40067    0.29513    0.29355   1.00
H1       0.59944    0.18768    0.24709   1.00
C5       0.39465    0.19690    0.19905   1.00
H1       0.47253    0.20536    0.20598   1.00
H1       0.52770    0.18726    0.24720   1.00
H2       0.40163    0.16651    0.20797   1.00
H2       0.36253    0.20052    0.20175   1.00
N1       0.40605    0.20343    0.15844   1.00
C6       0.44190    0.19830    0.14321   1.00
C6       0.38243    0.21530    0.12936   1.00
C6       0.44127    0.20718    0.10396   1.00
C6       0.40344    0.21800    0.09516   1.00
H3       0.46719    0.18865    0.15952   1.00
H3       0.35169    0.22179    0.13276   1.00
H3       0.46564    0.20586    0.08397   1.00
H3       0.39242    0.22683    0.06696   1.00
H2       0.63772    0.31724    0.25396   1.00
H2       0.59999    0.34163    0.22732   1.00
N1       0.59477    0.34531    0.28832   1.00
C6       0.61922    0.35685    0.31969   1.00
C6       0.55715    0.35978    0.29790   1.00
C6       0.59723    0.37713    0.34668   1.00
C6       0.55909    0.37891    0.33330   1.00
H3       0.65008    0.35053    0.32189   1.00
H3       0.53124    0.35589    0.28025   1.00
H3       0.60795    0.38944    0.37367   1.00
H3       0.53495    0.39281    0.34809   1.00
C4       0.97915    0.25016    0.25035   1.00
C4       1.02085    0.24984    0.24965   1.00
C3       0.95751    0.28530    0.24850   1.00
C3       1.04252    0.27521    0.22535   1.00
C3       0.95738    0.21509    0.25207   1.00
C3       1.04259    0.22458    0.27404   1.00
C2       0.89482    0.25015    0.24993   1.00
C2       1.10518    0.25015    0.24993   1.00
C3a      0.91599    0.28545    0.24830   1.00
C3       1.08382    0.27529    0.22553   1.00
C3       0.91611    0.21516    0.25186   1.00
C3a      1.08403    0.22457    0.27431   1.00
H1       0.97294    0.31283    0.24752   1.00
H1       1.02750    0.29492    0.20575   1.00
C5       0.89410    0.32346    0.24650   1.00
H1       1.09933    0.29513    0.20645   1.00
H1       0.90056    0.18768    0.25291   1.00
C5       1.10535    0.19690    0.30095   1.00
H1       1.02747    0.20536    0.29402   1.00
H1       0.97230    0.18726    0.25280   1.00
H2       1.09837    0.16651    0.29203   1.00
H2       1.13747    0.20052    0.29825   1.00
N1       1.09395    0.20343    0.34156   1.00
C6       1.05810    0.19830    0.35679   1.00
C6       1.11757    0.21530    0.37064   1.00
C6       1.05873    0.20718    0.39604   1.00
C6       1.09656    0.21800    0.40484   1.00
H3       1.03281    0.18865    0.34048   1.00
H3       1.14831    0.22179    0.36724   1.00
H3       1.03436    0.20586    0.41603   1.00
H3       1.10758    0.22683    0.43304   1.00
H2       0.86228    0.31724    0.24604   1.00
H2       0.90001    0.34163    0.27268   1.00
N1       0.90523    0.34531    0.21168   1.00
C6       0.88078    0.35685    0.18031   1.00
C6       0.94285    0.35978    0.20210   1.00
C6       0.90277    0.37713    0.15332   1.00
C6       0.94091    0.37891    0.16670   1.00
H3       0.84992    0.35053    0.17811   1.00
H3       0.96876    0.35589    0.21975   1.00
H3       0.89205    0.38944    0.12633   1.00
H3       0.96505    0.39281    0.15191   1.00
C4       0.74965    0.02085    0.25016   1.00
C4       0.75035    -0.02085   0.24984   1.00
C3       0.75150    0.04249    0.28530   1.00
C3       0.77465    -0.04252   0.27521   1.00
C3       0.74793    0.04262    0.21509   1.00
C3       0.72596    -0.04259   0.22458   1.00
C2       0.75007    0.10518    0.25015   1.00
C2       0.75007    -0.10518   0.25015   1.00
C3a      0.75170    0.08401    0.28545   1.00
C3       0.77447    -0.08382   0.27529   1.00
C3       0.74814    0.08389    0.21516   1.00
C3a      0.72569    -0.08403   0.22457   1.00
H1       0.75248    0.02706    0.31283   1.00
H1       0.79425    -0.02750   0.29492   1.00
C5       0.75350    0.10590    0.32346   1.00
H1       0.79355    -0.09933   0.29513   1.00
H1       0.74709    0.09944    0.18768   1.00
C5       0.69905    -0.10535   0.19690   1.00
H1       0.70598    -0.02747   0.20536   1.00
H1       0.74720    0.02770    0.18726   1.00
H2       0.70797    -0.09837   0.16651   1.00
H2       0.70175    -0.13747   0.20052   1.00
N1       0.65844    -0.09395   0.20343   1.00
C6       0.64321    -0.05810   0.19830   1.00
C6       0.62936    -0.11757   0.21530   1.00
C6       0.60396    -0.05873   0.20718   1.00
C6       0.59516    -0.09656   0.21800   1.00
H3       0.65952    -0.03281   0.18865   1.00
H3       0.63276    -0.14831   0.22179   1.00
H3       0.58397    -0.03436   0.20586   1.00
H3       0.56696    -0.10758   0.22683   1.00
H2       0.75396    0.13772    0.31724   1.00
H2       0.72732    0.09999    0.34163   1.00
N1       0.78832    0.09477    0.34531   1.00
C6       0.81969    0.11922    0.35685   1.00
C6       0.79790    0.05715    0.35978   1.00
C6       0.84668    0.09723    0.37713   1.00
C6       0.83330    0.05909    0.37891   1.00
H3       0.82189    0.15008    0.35053   1.00
H3       0.78025    0.03124    0.35589   1.00
H3       0.87367    0.10795    0.38944   1.00
H3       0.84809    0.03495    0.39281   1.00
C4       0.75016    0.24965    0.02085   1.00
C4       0.74984    0.25035    -0.02085   1.00
C3       0.78530    0.25150    0.04249   1.00
C3       0.77521    0.27465    -0.04252   1.00
C3       0.71509    0.24793    0.04262   1.00
C3       0.72458    0.22596    -0.04259   1.00
C2       0.75015    0.25007    0.10518   1.00
C2       0.75015    0.25007    -0.10518   1.00
C3a      0.78545    0.25170    0.08401   1.00
C3       0.77529    0.27447    -0.08382   1.00
C3       0.71516    0.24814    0.08389   1.00
C3a      0.72457    0.22569    -0.08403   1.00
H1       0.81283    0.25248    0.02706   1.00
H1       0.79492    0.29425    -0.02750   1.00
C5       0.82346    0.25350    0.10590   1.00
H1       0.79513    0.29355    -0.09933   1.00
H1       0.68768    0.24709    0.09944   1.00
C5       0.69690    0.19905    -0.10535   1.00
H1       0.70536    0.20598    -0.02747   1.00
H1       0.68726    0.24720    0.02770   1.00
H2       0.66651    0.20797    -0.09837   1.00
H2       0.70052    0.20175    -0.13747   1.00
N1       0.70343    0.15844    -0.09395   1.00
C6       0.69830    0.14321    -0.05810   1.00
C6       0.71530    0.12936    -0.11757   1.00
C6       0.70718    0.10396    -0.05873   1.00
C6       0.71800    0.09516    -0.09656   1.00
H3       0.68865    0.15952    -0.03281   1.00
H3       0.72179    0.13276    -0.14831   1.00
H3       0.70586    0.08397    -0.03436   1.00
H3       0.72683    0.06696    -0.10758   1.00
H2       0.81724    0.25396    0.13772   1.00
H2       0.84163    0.22732    0.09999   1.00
N1       0.84531    0.28832    0.09477   1.00
C6       0.85685    0.31969    0.11922   1.00
C6       0.85978    0.29790    0.05715   1.00
C6       0.87713    0.34668    0.09723   1.00
C6       0.87891    0.33330    0.05909   1.00
H3       0.85053    0.32189    0.15008   1.00
H3       0.85589    0.28025    0.03124   1.00
H3       0.88944    0.37367    0.10795   1.00
H3       0.89281    0.34809    0.03495   1.00
C4       1.00016    1.00035    1.22915   1.00
C4       0.99984    0.99965    1.27085   1.00
C3       1.03530    0.99850    1.20751   1.00
C3       1.02521    0.97535    1.29252   1.00
C3       0.96509    1.00207    1.20738   1.00
C3       0.97458    1.02404    1.29259   1.00
C2       1.00015    0.99993    1.14482   1.00
C2       1.00015    0.99993    1.35518   1.00
C3a      1.03545    0.99830    1.16599   1.00
C3       1.02529    0.97553    1.33382   1.00
C3       0.96516    1.00186    1.16611   1.00
C3a      0.97457    1.02431    1.33403   1.00
H1       1.06283    0.99752    1.22294   1.00
H1       1.04492    0.95575    1.27750   1.00
C5       1.07346    0.99650    1.14410   1.00
H1       1.04513    0.95645    1.34933   1.00
H1       0.93768    1.00291    1.15056   1.00
C5       0.94690    1.05095    1.35535   1.00
H1       0.95536    1.04402    1.27747   1.00
H1       0.93726    1.00280    1.22230   1.00
H2       0.91651    1.04203    1.34837   1.00
H2       0.95052    1.04825    1.38747   1.00
N1       0.95343    1.09156    1.34395   1.00
C6       0.94830    1.10679    1.30810   1.00
C6       0.96530    1.12064    1.36757   1.00
C6       0.95718    1.14604    1.30873   1.00
C6       0.96800    1.15484    1.34656   1.00
H3       0.93865    1.09048    1.28281   1.00
H3       0.97179    1.11724    1.39831   1.00
H3       0.95586    1.16603    1.28436   1.00
H3       0.97683    1.18304    1.35758   1.00
H2       1.06724    0.99604    1.11228   1.00
H2       1.09163    1.02268    1.15001   1.00
N1       1.09531    0.96168    1.15523   1.00
C6       1.10685    0.93031    1.13078   1.00
C6       1.10978    0.95210    1.19285   1.00
C6       1.12713    0.90332    1.15277   1.00
C6       1.12891    0.91670    1.19091   1.00
H3       1.10053    0.92811    1.09992   1.00
H3       1.10589    0.96975    1.21876   1.00
H3       1.13944    0.87633    1.14205   1.00
H3       1.14281    0.90191    1.21505   1.00
C4       1.00035    1.22915    1.00016   1.00
C4       0.99965    1.27085    0.99984   1.00
C3       0.99850    1.20751    1.03530   1.00
C3       0.97535    1.29252    1.02521   1.00
C3       1.00207    1.20738    0.96509   1.00
C3       1.02404    1.29259    0.97458   1.00
C2       0.99993    1.14482    1.00015   1.00
C2       0.99993    1.35518    1.00015   1.00
C3a      0.99830    1.16599    1.03545   1.00
C3       0.97553    1.33382    1.02529   1.00
C3       1.00186    1.16611    0.96516   1.00
C3a      1.02431    1.33403    0.97457   1.00
H1       0.99752    1.22294    1.06283   1.00
H1       0.95575    1.27750    1.04492   1.00
C5       0.99650    1.14410    1.07346   1.00
H1       0.95645    1.34933    1.04513   1.00
H1       1.00291    1.15056    0.93768   1.00
C5       1.05095    1.35535    0.94690   1.00
H1       1.04402    1.27747    0.95536   1.00
H1       1.00280    1.22230    0.93726   1.00
H2       1.04203    1.34837    0.91651   1.00
H2       1.04825    1.38747    0.95052   1.00
N1       1.09156    1.34395    0.95343   1.00
C6       1.10679    1.30810    0.94830   1.00
C6       1.12064    1.36757    0.96530   1.00
C6       1.14604    1.30873    0.95718   1.00
C6       1.15484    1.34656    0.96800   1.00
H3       1.09048    1.28281    0.93865   1.00
H3       1.11724    1.39831    0.97179   1.00
H3       1.16603    1.28436    0.95586   1.00
H3       1.18304    1.35758    0.97683   1.00
H2       0.99604    1.11228    1.06724   1.00
H2       1.02268    1.15001    1.09163   1.00
N1       0.96168    1.15523    1.09531   1.00
C6       0.93031    1.13078    1.10685   1.00
C6       0.95210    1.19285    1.10978   1.00
C6       0.90332    1.15277    1.12713   1.00
C6       0.91670    1.19091    1.12891   1.00
H3       0.92811    1.09992    1.10053   1.00
H3       0.96975    1.21876    1.10589   1.00
H3       0.87633    1.14205    1.13944   1.00
H3       0.90191    1.21505    1.14281   1.00
C4       0.77085    1.00016    0.99965   1.00
C4       0.72915    0.99984    1.00035   1.00
C3       0.79249    1.03530    1.00150   1.00
C3       0.70748    1.02521    1.02465   1.00
C3       0.79262    0.96509    0.99793   1.00
C3       0.70741    0.97458    0.97596   1.00
C2       0.85518    1.00015    1.00007   1.00
C2       0.64482    1.00015    1.00007   1.00
C3a      0.83401    1.03545    1.00170   1.00
C3       0.66618    1.02529    1.02447   1.00
C3       0.83389    0.96516    0.99814   1.00
C3a      0.66597    0.97457    0.97569   1.00
H1       0.77706    1.06283    1.00248   1.00
H1       0.72250    1.04492    1.04425   1.00
C5       0.85590    1.07346    1.00350   1.00
H1       0.65067    1.04513    1.04355   1.00
H1       0.84944    0.93768    0.99709   1.00
C5       0.64465    0.94690    0.94905   1.00
H1       0.72253    0.95536    0.95598   1.00
H1       0.77770    0.93726    0.99720   1.00
H2       0.65163    0.91651    0.95797   1.00
H2       0.61253    0.95052    0.95175   1.00
N1       0.65605    0.95343    0.90844   1.00
C6       0.69190    0.94830    0.89321   1.00
C6       0.63243    0.96530    0.87936   1.00
C6       0.69127    0.95718    0.85396   1.00
C6       0.65344    0.96800    0.84516   1.00
H3       0.71719    0.93865    0.90952   1.00
H3       0.60169    0.97179    0.88276   1.00
H3       0.71564    0.95586    0.83397   1.00
H3       0.64242    0.97683    0.81696   1.00
H2       0.88772    1.06724    1.00396   1.00
H2       0.84999    1.09163    0.97732   1.00
N1       0.84477    1.09531    1.03832   1.00
C6       0.86922    1.10685    1.06969   1.00
C6       0.80715    1.10978    1.04790   1.00
C6       0.84723    1.12713    1.09668   1.00
C6       0.80909    1.12891    1.08330   1.00
H3       0.90008    1.10053    1.07189   1.00
H3       0.78124    1.10589    1.03025   1.00
H3       0.85795    1.13944    1.12367   1.00
H3       0.78495    1.14281    1.09809   1.00
C4       1.22915    1.00016    1.00035   1.00
C4       1.27085    0.99984    0.99965   1.00
C3       1.20751    1.03530    0.99850   1.00
C3       1.29252    1.02521    0.97535   1.00
C3       1.20738    0.96509    1.00207   1.00
C3       1.29259    0.97458    1.02404   1.00
C2       1.14482    1.00015    0.99993   1.00
C2       1.35518    1.00015    0.99993   1.00
C3a      1.16599    1.03545    0.99830   1.00
C3       1.33382    1.02529    0.97553   1.00
C3       1.16611    0.96516    1.00186   1.00
C3a      1.33403    0.97457    1.02431   1.00
H1       1.22294    1.06283    0.99752   1.00
H1       1.27750    1.04492    0.95575   1.00
C5       1.14410    1.07346    0.99650   1.00
H1       1.34933    1.04513    0.95645   1.00
H1       1.15056    0.93768    1.00291   1.00
C5       1.35535    0.94690    1.05095   1.00
H1       1.27747    0.95536    1.04402   1.00
H1       1.22230    0.93726    1.00280   1.00
H2       1.34837    0.91651    1.04203   1.00
H2       1.38747    0.95052    1.04825   1.00
N1       1.34395    0.95343    1.09156   1.00
C6       1.30810    0.94830    1.10679   1.00
C6       1.36757    0.96530    1.12064   1.00
C6       1.30873    0.95718    1.14604   1.00
C6       1.34656    0.96800    1.15484   1.00
H3       1.28281    0.93865    1.09048   1.00
H3       1.39831    0.97179    1.11724   1.00
H3       1.28436    0.95586    1.16603   1.00
H3       1.35758    0.97683    1.18304   1.00
H2       1.11228    1.06724    0.99604   1.00
H2       1.15001    1.09163    1.02268   1.00
N1       1.15523    1.09531    0.96168   1.00
C6       1.13078    1.10685    0.93031   1.00
C6       1.19285    1.10978    0.95210   1.00
C6       1.15277    1.12713    0.90332   1.00
C6       1.19091    1.12891    0.91670   1.00
H3       1.09992    1.10053    0.92811   1.00
H3       1.21876    1.10589    0.96975   1.00
H3       1.14205    1.13944    0.87633   1.00
H3       1.21505    1.14281    0.90191   1.00
C4       0.99965    0.77085    1.00016   1.00
C4       1.00035    0.72915    0.99984   1.00
C3       1.00150    0.79249    1.03530   1.00
C3       1.02465    0.70748    1.02521   1.00
C3       0.99793    0.79262    0.96509   1.00
C3       0.97596    0.70741    0.97458   1.00
C2       1.00007    0.85518    1.00015   1.00
C2       1.00007    0.64482    1.00015   1.00
C3a      1.00170    0.83401    1.03545   1.00
C3       1.02447    0.66618    1.02529   1.00
C3       0.99814    0.83389    0.96516   1.00
C3a      0.97569    0.66597    0.97457   1.00
H1       1.00248    0.77706    1.06283   1.00
H1       1.04425    0.72250    1.04492   1.00
C5       1.00350    0.85590    1.07346   1.00
H1       1.04355    0.65067    1.04513   1.00
H1       0.99709    0.84944    0.93768   1.00
C5       0.94905    0.64465    0.94690   1.00
H1       0.95598    0.72253    0.95536   1.00
H1       0.99720    0.77770    0.93726   1.00
H2       0.95797    0.65163    0.91651   1.00
H2       0.95175    0.61253    0.95052   1.00
N1       0.90844    0.65605    0.95343   1.00
C6       0.89321    0.69190    0.94830   1.00
C6       0.87936    0.63243    0.96530   1.00
C6       0.85396    0.69127    0.95718   1.00
C6       0.84516    0.65344    0.96800   1.00
H3       0.90952    0.71719    0.93865   1.00
H3       0.88276    0.60169    0.97179   1.00
H3       0.83397    0.71564    0.95586   1.00
H3       0.81696    0.64242    0.97683   1.00
H2       1.00396    0.88772    1.06724   1.00
H2       0.97732    0.84999    1.09163   1.00
N1       1.03832    0.84477    1.09531   1.00
C6       1.06969    0.86922    1.10685   1.00
C6       1.04790    0.80715    1.10978   1.00
C6       1.09668    0.84723    1.12713   1.00
C6       1.08330    0.80909    1.12891   1.00
H3       1.07189    0.90008    1.10053   1.00
H3       1.03025    0.78124    1.10589   1.00
H3       1.12367    0.85795    1.13944   1.00
H3       1.09809    0.78495    1.14281   1.00
C4       1.00016    0.99965    0.77085   1.00
C4       0.99984    1.00035    0.72915   1.00
C3       1.03530    1.00150    0.79249   1.00
C3       1.02521    1.02465    0.70748   1.00
C3       0.96509    0.99793    0.79262   1.00
C3       0.97458    0.97596    0.70741   1.00
C2       1.00015    1.00007    0.85518   1.00
C2       1.00015    1.00007    0.64482   1.00
C3a      1.03545    1.00170    0.83401   1.00
C3       1.02529    1.02447    0.66618   1.00
C3       0.96516    0.99814    0.83389   1.00
C3a      0.97457    0.97569    0.66597   1.00
H1       1.06283    1.00248    0.77706   1.00
H1       1.04492    1.04425    0.72250   1.00
C5       1.07346    1.00350    0.85590   1.00
H1       1.04513    1.04355    0.65067   1.00
H1       0.93768    0.99709    0.84944   1.00
C5       0.94690    0.94905    0.64465   1.00
H1       0.95536    0.95598    0.72253   1.00
H1       0.93726    0.99720    0.77770   1.00
H2       0.91651    0.95797    0.65163   1.00
H2       0.95052    0.95175    0.61253   1.00
N1       0.95343    0.90844    0.65605   1.00
C6       0.94830    0.89321    0.69190   1.00
C6       0.96530    0.87936    0.63243   1.00
C6       0.95718    0.85396    0.69127   1.00
C6       0.96800    0.84516    0.65344   1.00
H3       0.93865    0.90952    0.71719   1.00
H3       0.97179    0.88276    0.60169   1.00
H3       0.95586    0.83397    0.71564   1.00
H3       0.97683    0.81696    0.64242   1.00
H2       1.06724    1.00396    0.88772   1.00
H2       1.09163    0.97732    0.84999   1.00
N1       1.09531    1.03832    0.84477   1.00
C6       1.10685    1.06969    0.86922   1.00
C6       1.10978    1.04790    0.80715   1.00
C6       1.12713    1.09668    0.84723   1.00
C6       1.12891    1.08330    0.80909   1.00
H3       1.10053    1.07189    0.90008   1.00
H3       1.10589    1.03025    0.78124   1.00
H3       1.13944    1.12367    0.85795   1.00
H3       1.14281    1.09809    0.78495   1.00
C4       0.50016    0.50035    1.22915   1.00
C4       0.49984    0.49965    1.27085   1.00
C3       0.53530    0.49850    1.20751   1.00
C3       0.52521    0.47535    1.29252   1.00
C3       0.46509    0.50207    1.20738   1.00
C3       0.47458    0.52404    1.29259   1.00
C2       0.50015    0.49993    1.14482   1.00
C2       0.50015    0.49993    1.35518   1.00
C3a      0.53545    0.49830    1.16599   1.00
C3       0.52529    0.47553    1.33382   1.00
C3       0.46516    0.50186    1.16611   1.00
C3a      0.47457    0.52431    1.33403   1.00
H1       0.56283    0.49752    1.22294   1.00
H1       0.54492    0.45575    1.27750   1.00
C5       0.57346    0.49650    1.14410   1.00
H1       0.54513    0.45645    1.34933   1.00
H1       0.43768    0.50291    1.15056   1.00
C5       0.44690    0.55095    1.35535   1.00
H1       0.45536    0.54402    1.27747   1.00
H1       0.43726    0.50280    1.22230   1.00
H2       0.41651    0.54203    1.34837   1.00
H2       0.45052    0.54825    1.38747   1.00
N1       0.45343    0.59156    1.34395   1.00
C6       0.44830    0.60679    1.30810   1.00
C6       0.46530    0.62064    1.36757   1.00
C6       0.45718    0.64604    1.30873   1.00
C6       0.46800    0.65484    1.34656   1.00
H3       0.43865    0.59048    1.28281   1.00
H3       0.47179    0.61724    1.39831   1.00
H3       0.45586    0.66603    1.28436   1.00
H3       0.47683    0.68304    1.35758   1.00
H2       0.56724    0.49604    1.11228   1.00
H2       0.59163    0.52268    1.15001   1.00
N1       0.59531    0.46168    1.15523   1.00
C6       0.60685    0.43031    1.13078   1.00
C6       0.60978    0.45210    1.19285   1.00
C6       0.62713    0.40332    1.15277   1.00
C6       0.62891    0.41670    1.19091   1.00
H3       0.60053    0.42811    1.09992   1.00
H3       0.60589    0.46975    1.21876   1.00
H3       0.63944    0.37633    1.14205   1.00
H3       0.64281    0.40191    1.21505   1.00
C4       0.50035    0.72915    1.00016   1.00
C4       0.49965    0.77085    0.99984   1.00
C3       0.49850    0.70751    1.03530   1.00
C3       0.47535    0.79252    1.02521   1.00
C3       0.50207    0.70738    0.96509   1.00
C3       0.52404    0.79259    0.97458   1.00
C2       0.49993    0.64482    1.00015   1.00
C2       0.49993    0.85518    1.00015   1.00
C3a      0.49830    0.66599    1.03545   1.00
C3       0.47553    0.83382    1.02529   1.00
C3       0.50186    0.66611    0.96516   1.00
C3a      0.52431    0.83403    0.97457   1.00
H1       0.49752    0.72294    1.06283   1.00
H1       0.45575    0.77750    1.04492   1.00
C5       0.49650    0.64410    1.07346   1.00
H1       0.45645    0.84933    1.04513   1.00
H1       0.50291    0.65056    0.93768   1.00
C5       0.55095    0.85535    0.94690   1.00
H1       0.54402    0.77747    0.95536   1.00
H1       0.50280    0.72230    0.93726   1.00
H2       0.54203    0.84837    0.91651   1.00
H2       0.54825    0.88747    0.95052   1.00
N1       0.59156    0.84395    0.95343   1.00
C6       0.60679    0.80810    0.94830   1.00
C6       0.62064    0.86757    0.96530   1.00
C6       0.64604    0.80873    0.95718   1.00
C6       0.65484    0.84656    0.96800   1.00
H3       0.59048    0.78281    0.93865   1.00
H3       0.61724    0.89831    0.97179   1.00
H3       0.66603    0.78436    0.95586   1.00
H3       0.68304    0.85758    0.97683   1.00
H2       0.49604    0.61228    1.06724   1.00
H2       0.52268    0.65001    1.09163   1.00
N1       0.46168    0.65523    1.09531   1.00
C6       0.43031    0.63078    1.10685   1.00
C6       0.45210    0.69285    1.10978   1.00
C6       0.40332    0.65277    1.12713   1.00
C6       0.41670    0.69091    1.12891   1.00
H3       0.42811    0.59992    1.10053   1.00
H3       0.46975    0.71876    1.10589   1.00
H3       0.37633    0.64205    1.13944   1.00
H3       0.40191    0.71505    1.14281   1.00
C4       0.27085    0.50016    0.99965   1.00
C4       0.22915    0.49984    1.00035   1.00
C3       0.29249    0.53530    1.00150   1.00
C3       0.20748    0.52521    1.02465   1.00
C3       0.29262    0.46509    0.99793   1.00
C3       0.20741    0.47458    0.97596   1.00
C2       0.35518    0.50015    1.00007   1.00
C2       0.14482    0.50015    1.00007   1.00
C3a      0.33401    0.53545    1.00170   1.00
C3       0.16618    0.52529    1.02447   1.00
C3       0.33389    0.46516    0.99814   1.00
C3a      0.16597    0.47457    0.97569   1.00
H1       0.27706    0.56283    1.00248   1.00
H1       0.22250    0.54492    1.04425   1.00
C5       0.35590    0.57346    1.00350   1.00
H1       0.15067    0.54513    1.04355   1.00
H1       0.34944    0.43768    0.99709   1.00
C5       0.14465    0.44690    0.94905   1.00
H1       0.22253    0.45536    0.95598   1.00
H1       0.27770    0.43726    0.99720   1.00
H2       0.15163    0.41651    0.95797   1.00
H2       0.11253    0.45052    0.95175   1.00
N1       0.15605    0.45343    0.90844   1.00
C6       0.19190    0.44830    0.89321   1.00
C6       0.13243    0.46530    0.87936   1.00
C6       0.19127    0.45718    0.85396   1.00
C6       0.15344    0.46800    0.84516   1.00
H3       0.21719    0.43865    0.90952   1.00
H3       0.10169    0.47179    0.88276   1.00
H3       0.21564    0.45586    0.83397   1.00
H3       0.14242    0.47683    0.81696   1.00
H2       0.38772    0.56724    1.00396   1.00
H2       0.34999    0.59163    0.97732   1.00
N1       0.34477    0.59531    1.03832   1.00
C6       0.36922    0.60685    1.06969   1.00
C6       0.30715    0.60978    1.04790   1.00
C6       0.34723    0.62713    1.09668   1.00
C6       0.30909    0.62891    1.08330   1.00
H3       0.40008    0.60053    1.07189   1.00
H3       0.28124    0.60589    1.03025   1.00
H3       0.35795    0.63944    1.12367   1.00
H3       0.28495    0.64281    1.09809   1.00
C4       0.72915    0.50016    1.00035   1.00
C4       0.77085    0.49984    0.99965   1.00
C3       0.70751    0.53530    0.99850   1.00
C3       0.79252    0.52521    0.97535   1.00
C3       0.70738    0.46509    1.00207   1.00
C3       0.79259    0.47458    1.02404   1.00
C2       0.64482    0.50015    0.99993   1.00
C2       0.85518    0.50015    0.99993   1.00
C3a      0.66599    0.53545    0.99830   1.00
C3       0.83382    0.52529    0.97553   1.00
C3       0.66611    0.46516    1.00186   1.00
C3a      0.83403    0.47457    1.02431   1.00
H1       0.72294    0.56283    0.99752   1.00
H1       0.77750    0.54492    0.95575   1.00
C5       0.64410    0.57346    0.99650   1.00
H1       0.84933    0.54513    0.95645   1.00
H1       0.65056    0.43768    1.00291   1.00
C5       0.85535    0.44690    1.05095   1.00
H1       0.77747    0.45536    1.04402   1.00
H1       0.72230    0.43726    1.00280   1.00
H2       0.84837    0.41651    1.04203   1.00
H2       0.88747    0.45052    1.04825   1.00
N1       0.84395    0.45343    1.09156   1.00
C6       0.80810    0.44830    1.10679   1.00
C6       0.86757    0.46530    1.12064   1.00
C6       0.80873    0.45718    1.14604   1.00
C6       0.84656    0.46800    1.15484   1.00
H3       0.78281    0.43865    1.09048   1.00
H3       0.89831    0.47179    1.11724   1.00
H3       0.78436    0.45586    1.16603   1.00
H3       0.85758    0.47683    1.18304   1.00
H2       0.61228    0.56724    0.99604   1.00
H2       0.65001    0.59163    1.02268   1.00
N1       0.65523    0.59531    0.96168   1.00
C6       0.63078    0.60685    0.93031   1.00
C6       0.69285    0.60978    0.95210   1.00
C6       0.65277    0.62713    0.90332   1.00
C6       0.69091    0.62891    0.91670   1.00
H3       0.59992    0.60053    0.92811   1.00
H3       0.71876    0.60589    0.96975   1.00
H3       0.64205    0.63944    0.87633   1.00
H3       0.71505    0.64281    0.90191   1.00
C4       0.49965    0.27085    1.00016   1.00
C4       0.50035    0.22915    0.99984   1.00
C3       0.50150    0.29249    1.03530   1.00
C3       0.52465    0.20748    1.02521   1.00
C3       0.49793    0.29262    0.96509   1.00
C3       0.47596    0.20741    0.97458   1.00
C2       0.50007    0.35518    1.00015   1.00
C2       0.50007    0.14482    1.00015   1.00
C3a      0.50170    0.33401    1.03545   1.00
C3       0.52447    0.16618    1.02529   1.00
C3       0.49814    0.33389    0.96516   1.00
C3a      0.47569    0.16597    0.97457   1.00
H1       0.50248    0.27706    1.06283   1.00
H1       0.54425    0.22250    1.04492   1.00
C5       0.50350    0.35590    1.07346   1.00
H1       0.54355    0.15067    1.04513   1.00
H1       0.49709    0.34944    0.93768   1.00
C5       0.44905    0.14465    0.94690   1.00
H1       0.45598    0.22253    0.95536   1.00
H1       0.49720    0.27770    0.93726   1.00
H2       0.45797    0.15163    0.91651   1.00
H2       0.45175    0.11253    0.95052   1.00
N1       0.40844    0.15605    0.95343   1.00
C6       0.39321    0.19190    0.94830   1.00
C6       0.37936    0.13243    0.96530   1.00
C6       0.35396    0.19127    0.95718   1.00
C6       0.34516    0.15344    0.96800   1.00
H3       0.40952    0.21719    0.93865   1.00
H3       0.38276    0.10169    0.97179   1.00
H3       0.33397    0.21564    0.95586   1.00
H3       0.31696    0.14242    0.97683   1.00
H2       0.50396    0.38772    1.06724   1.00
H2       0.47732    0.34999    1.09163   1.00
N1       0.53832    0.34477    1.09531   1.00
C6       0.56969    0.36922    1.10685   1.00
C6       0.54790    0.30715    1.10978   1.00
C6       0.59668    0.34723    1.12713   1.00
C6       0.58330    0.30909    1.12891   1.00
H3       0.57189    0.40008    1.10053   1.00
H3       0.53025    0.28124    1.10589   1.00
H3       0.62367    0.35795    1.13944   1.00
H3       0.59809    0.28495    1.14281   1.00
C4       0.50016    0.49965    0.77085   1.00
C4       0.49984    0.50035    0.72915   1.00
C3       0.53530    0.50150    0.79249   1.00
C3       0.52521    0.52465    0.70748   1.00
C3       0.46509    0.49793    0.79262   1.00
C3       0.47458    0.47596    0.70741   1.00
C2       0.50015    0.50007    0.85518   1.00
C2       0.50015    0.50007    0.64482   1.00
C3a      0.53545    0.50170    0.83401   1.00
C3       0.52529    0.52447    0.66618   1.00
C3       0.46516    0.49814    0.83389   1.00
C3a      0.47457    0.47569    0.66597   1.00
H1       0.56283    0.50248    0.77706   1.00
H1       0.54492    0.54425    0.72250   1.00
C5       0.57346    0.50350    0.85590   1.00
H1       0.54513    0.54355    0.65067   1.00
H1       0.43768    0.49709    0.84944   1.00
C5       0.44690    0.44905    0.64465   1.00
H1       0.45536    0.45598    0.72253   1.00
H1       0.43726    0.49720    0.77770   1.00
H2       0.41651    0.45797    0.65163   1.00
H2       0.45052    0.45175    0.61253   1.00
N1       0.45343    0.40844    0.65605   1.00
C6       0.44830    0.39321    0.69190   1.00
C6       0.46530    0.37936    0.63243   1.00
C6       0.45718    0.35396    0.69127   1.00
C6       0.46800    0.34516    0.65344   1.00
H3       0.43865    0.40952    0.71719   1.00
H3       0.47179    0.38276    0.60169   1.00
H3       0.45586    0.33397    0.71564   1.00
H3       0.47683    0.31696    0.64242   1.00
H2       0.56724    0.50396    0.88772   1.00
H2       0.59163    0.47732    0.84999   1.00
N1       0.59531    0.53832    0.84477   1.00
C6       0.60685    0.56969    0.86922   1.00
C6       0.60978    0.54790    0.80715   1.00
C6       0.62713    0.59668    0.84723   1.00
C6       0.62891    0.58330    0.80909   1.00
H3       0.60053    0.57189    0.90008   1.00
H3       0.60589    0.53025    0.78124   1.00
H3       0.63944    0.62367    0.85795   1.00
H3       0.64281    0.59809    0.78495   1.00
C4       0.50016    1.00035    0.72915   1.00
C4       0.49984    0.99965    0.77085   1.00
C3       0.53530    0.99850    0.70751   1.00
C3       0.52521    0.97535    0.79252   1.00
C3       0.46509    1.00207    0.70738   1.00
C3       0.47458    1.02404    0.79259   1.00
C2       0.50015    0.99993    0.64482   1.00
C2       0.50015    0.99993    0.85518   1.00
C3a      0.53545    0.99830    0.66599   1.00
C3       0.52529    0.97553    0.83382   1.00
C3       0.46516    1.00186    0.66611   1.00
C3a      0.47457    1.02431    0.83403   1.00
H1       0.56283    0.99752    0.72294   1.00
H1       0.54492    0.95575    0.77750   1.00
C5       0.57346    0.99650    0.64410   1.00
H1       0.54513    0.95645    0.84933   1.00
H1       0.43768    1.00291    0.65056   1.00
C5       0.44690    1.05095    0.85535   1.00
H1       0.45536    1.04402    0.77747   1.00
H1       0.43726    1.00280    0.72230   1.00
H2       0.41651    1.04203    0.84837   1.00
H2       0.45052    1.04825    0.88747   1.00
N1       0.45343    1.09156    0.84395   1.00
C6       0.44830    1.10679    0.80810   1.00
C6       0.46530    1.12064    0.86757   1.00
C6       0.45718    1.14604    0.80873   1.00
C6       0.46800    1.15484    0.84656   1.00
H3       0.43865    1.09048    0.78281   1.00
H3       0.47179    1.11724    0.89831   1.00
H3       0.45586    1.16603    0.78436   1.00
H3       0.47683    1.18304    0.85758   1.00
H2       0.56724    0.99604    0.61228   1.00
H2       0.59163    1.02268    0.65001   1.00
N1       0.59531    0.96168    0.65523   1.00
C6       0.60685    0.93031    0.63078   1.00
C6       0.60978    0.95210    0.69285   1.00
C6       0.62713    0.90332    0.65277   1.00
C6       0.62891    0.91670    0.69091   1.00
H3       0.60053    0.92811    0.59992   1.00
H3       0.60589    0.96975    0.71876   1.00
H3       0.63944    0.87633    0.64205   1.00
H3       0.64281    0.90191    0.71505   1.00
C4       0.50035    1.22915    0.50016   1.00
C4       0.49965    1.27085    0.49984   1.00
C3       0.49850    1.20751    0.53530   1.00
C3       0.47535    1.29252    0.52521   1.00
C3       0.50207    1.20738    0.46509   1.00
C3       0.52404    1.29259    0.47458   1.00
C2       0.49993    1.14482    0.50015   1.00
C2       0.49993    1.35518    0.50015   1.00
C3a      0.49830    1.16599    0.53545   1.00
C3       0.47553    1.33382    0.52529   1.00
C3       0.50186    1.16611    0.46516   1.00
C3a      0.52431    1.33403    0.47457   1.00
H1       0.49752    1.22294    0.56283   1.00
H1       0.45575    1.27750    0.54492   1.00
C5       0.49650    1.14410    0.57346   1.00
H1       0.45645    1.34933    0.54513   1.00
H1       0.50291    1.15056    0.43768   1.00
C5       0.55095    1.35535    0.44690   1.00
H1       0.54402    1.27747    0.45536   1.00
H1       0.50280    1.22230    0.43726   1.00
H2       0.54203    1.34837    0.41651   1.00
H2       0.54825    1.38747    0.45052   1.00
N1       0.59156    1.34395    0.45343   1.00
C6       0.60679    1.30810    0.44830   1.00
C6       0.62064    1.36757    0.46530   1.00
C6       0.64604    1.30873    0.45718   1.00
C6       0.65484    1.34656    0.46800   1.00
H3       0.59048    1.28281    0.43865   1.00
H3       0.61724    1.39831    0.47179   1.00
H3       0.66603    1.28436    0.45586   1.00
H3       0.68304    1.35758    0.47683   1.00
H2       0.49604    1.11228    0.56724   1.00
H2       0.52268    1.15001    0.59163   1.00
N1       0.46168    1.15523    0.59531   1.00
C6       0.43031    1.13078    0.60685   1.00
C6       0.45210    1.19285    0.60978   1.00
C6       0.40332    1.15277    0.62713   1.00
C6       0.41670    1.19091    0.62891   1.00
H3       0.42811    1.09992    0.60053   1.00
H3       0.46975    1.21876    0.60589   1.00
H3       0.37633    1.14205    0.63944   1.00
H3       0.40191    1.21505    0.64281   1.00
C4       0.27085    1.00016    0.49965   1.00
C4       0.22915    0.99984    0.50035   1.00
C3       0.29249    1.03530    0.50150   1.00
C3       0.20748    1.02521    0.52465   1.00
C3       0.29262    0.96509    0.49793   1.00
C3       0.20741    0.97458    0.47596   1.00
C2       0.35518    1.00015    0.50007   1.00
C2       0.14482    1.00015    0.50007   1.00
C3a      0.33401    1.03545    0.50170   1.00
C3       0.16618    1.02529    0.52447   1.00
C3       0.33389    0.96516    0.49814   1.00
C3a      0.16597    0.97457    0.47569   1.00
H1       0.27706    1.06283    0.50248   1.00
H1       0.22250    1.04492    0.54425   1.00
C5       0.35590    1.07346    0.50350   1.00
H1       0.15067    1.04513    0.54355   1.00
H1       0.34944    0.93768    0.49709   1.00
C5       0.14465    0.94690    0.44905   1.00
H1       0.22253    0.95536    0.45598   1.00
H1       0.27770    0.93726    0.49720   1.00
H2       0.15163    0.91651    0.45797   1.00
H2       0.11253    0.95052    0.45175   1.00
N1       0.15605    0.95343    0.40844   1.00
C6       0.19190    0.94830    0.39321   1.00
C6       0.13243    0.96530    0.37936   1.00
C6       0.19127    0.95718    0.35396   1.00
C6       0.15344    0.96800    0.34516   1.00
H3       0.21719    0.93865    0.40952   1.00
H3       0.10169    0.97179    0.38276   1.00
H3       0.21564    0.95586    0.33397   1.00
H3       0.14242    0.97683    0.31696   1.00
H2       0.38772    1.06724    0.50396   1.00
H2       0.34999    1.09163    0.47732   1.00
N1       0.34477    1.09531    0.53832   1.00
C6       0.36922    1.10685    0.56969   1.00
C6       0.30715    1.10978    0.54790   1.00
C6       0.34723    1.12713    0.59668   1.00
C6       0.30909    1.12891    0.58330   1.00
H3       0.40008    1.10053    0.57189   1.00
H3       0.28124    1.10589    0.53025   1.00
H3       0.35795    1.13944    0.62367   1.00
H3       0.28495    1.14281    0.59809   1.00
C4       0.72915    1.00016    0.50035   1.00
C4       0.77085    0.99984    0.49965   1.00
C3       0.70751    1.03530    0.49850   1.00
C3       0.79252    1.02521    0.47535   1.00
C3       0.70738    0.96509    0.50207   1.00
C3       0.79259    0.97458    0.52404   1.00
C2       0.64482    1.00015    0.49993   1.00
C2       0.85518    1.00015    0.49993   1.00
C3a      0.66599    1.03545    0.49830   1.00
C3       0.83382    1.02529    0.47553   1.00
C3       0.66611    0.96516    0.50186   1.00
C3a      0.83403    0.97457    0.52431   1.00
H1       0.72294    1.06283    0.49752   1.00
H1       0.77750    1.04492    0.45575   1.00
C5       0.64410    1.07346    0.49650   1.00
H1       0.84933    1.04513    0.45645   1.00
H1       0.65056    0.93768    0.50291   1.00
C5       0.85535    0.94690    0.55095   1.00
H1       0.77747    0.95536    0.54402   1.00
H1       0.72230    0.93726    0.50280   1.00
H2       0.84837    0.91651    0.54203   1.00
H2       0.88747    0.95052    0.54825   1.00
N1       0.84395    0.95343    0.59156   1.00
C6       0.80810    0.94830    0.60679   1.00
C6       0.86757    0.96530    0.62064   1.00
C6       0.80873    0.95718    0.64604   1.00
C6       0.84656    0.96800    0.65484   1.00
H3       0.78281    0.93865    0.59048   1.00
H3       0.89831    0.97179    0.61724   1.00
H3       0.78436    0.95586    0.66603   1.00
H3       0.85758    0.97683    0.68304   1.00
H2       0.61228    1.06724    0.49604   1.00
H2       0.65001    1.09163    0.52268   1.00
N1       0.65523    1.09531    0.46168   1.00
C6       0.63078    1.10685    0.43031   1.00
C6       0.69285    1.10978    0.45210   1.00
C6       0.65277    1.12713    0.40332   1.00
C6       0.69091    1.12891    0.41670   1.00
H3       0.59992    1.10053    0.42811   1.00
H3       0.71876    1.10589    0.46975   1.00
H3       0.64205    1.13944    0.37633   1.00
H3       0.71505    1.14281    0.40191   1.00
C4       0.49965    0.77085    0.50016   1.00
C4       0.50035    0.72915    0.49984   1.00
C3       0.50150    0.79249    0.53530   1.00
C3       0.52465    0.70748    0.52521   1.00
C3       0.49793    0.79262    0.46509   1.00
C3       0.47596    0.70741    0.47458   1.00
C2       0.50007    0.85518    0.50015   1.00
C2       0.50007    0.64482    0.50015   1.00
C3a      0.50170    0.83401    0.53545   1.00
C3       0.52447    0.66618    0.52529   1.00
C3       0.49814    0.83389    0.46516   1.00
C3a      0.47569    0.66597    0.47457   1.00
H1       0.50248    0.77706    0.56283   1.00
H1       0.54425    0.72250    0.54492   1.00
C5       0.50350    0.85590    0.57346   1.00
H1       0.54355    0.65067    0.54513   1.00
H1       0.49709    0.84944    0.43768   1.00
C5       0.44905    0.64465    0.44690   1.00
H1       0.45598    0.72253    0.45536   1.00
H1       0.49720    0.77770    0.43726   1.00
H2       0.45797    0.65163    0.41651   1.00
H2       0.45175    0.61253    0.45052   1.00
N1       0.40844    0.65605    0.45343   1.00
C6       0.39321    0.69190    0.44830   1.00
C6       0.37936    0.63243    0.46530   1.00
C6       0.35396    0.69127    0.45718   1.00
C6       0.34516    0.65344    0.46800   1.00
H3       0.40952    0.71719    0.43865   1.00
H3       0.38276    0.60169    0.47179   1.00
H3       0.33397    0.71564    0.45586   1.00
H3       0.31696    0.64242    0.47683   1.00
H2       0.50396    0.88772    0.56724   1.00
H2       0.47732    0.84999    0.59163   1.00
N1       0.53832    0.84477    0.59531   1.00
C6       0.56969    0.86922    0.60685   1.00
C6       0.54790    0.80715    0.60978   1.00
C6       0.59668    0.84723    0.62713   1.00
C6       0.58330    0.80909    0.62891   1.00
H3       0.57189    0.90008    0.60053   1.00
H3       0.53025    0.78124    0.60589   1.00
H3       0.62367    0.85795    0.63944   1.00
H3       0.59809    0.78495    0.64281   1.00
C4       0.50016    0.99965    0.27085   1.00
C4       0.49984    1.00035    0.22915   1.00
C3       0.53530    1.00150    0.29249   1.00
C3       0.52521    1.02465    0.20748   1.00
C3       0.46509    0.99793    0.29262   1.00
C3       0.47458    0.97596    0.20741   1.00
C2       0.50015    1.00007    0.35518   1.00
C2       0.50015    1.00007    0.14482   1.00
C3a      0.53545    1.00170    0.33401   1.00
C3       0.52529    1.02447    0.16618   1.00
C3       0.46516    0.99814    0.33389   1.00
C3a      0.47457    0.97569    0.16597   1.00
H1       0.56283    1.00248    0.27706   1.00
H1       0.54492    1.04425    0.22250   1.00
C5       0.57346    1.00350    0.35590   1.00
H1       0.54513    1.04355    0.15067   1.00
H1       0.43768    0.99709    0.34944   1.00
C5       0.44690    0.94905    0.14465   1.00
H1       0.45536    0.95598    0.22253   1.00
H1       0.43726    0.99720    0.27770   1.00
H2       0.41651    0.95797    0.15163   1.00
H2       0.45052    0.95175    0.11253   1.00
N1       0.45343    0.90844    0.15605   1.00
C6       0.44830    0.89321    0.19190   1.00
C6       0.46530    0.87936    0.13243   1.00
C6       0.45718    0.85396    0.19127   1.00
C6       0.46800    0.84516    0.15344   1.00
H3       0.43865    0.90952    0.21719   1.00
H3       0.47179    0.88276    0.10169   1.00
H3       0.45586    0.83397    0.21564   1.00
H3       0.47683    0.81696    0.14242   1.00
H2       0.56724    1.00396    0.38772   1.00
H2       0.59163    0.97732    0.34999   1.00
N1       0.59531    1.03832    0.34477   1.00
C6       0.60685    1.06969    0.36922   1.00
C6       0.60978    1.04790    0.30715   1.00
C6       0.62713    1.09668    0.34723   1.00
C6       0.62891    1.08330    0.30909   1.00
H3       0.60053    1.07189    0.40008   1.00
H3       0.60589    1.03025    0.28124   1.00
H3       0.63944    1.12367    0.35795   1.00
H3       0.64281    1.09809    0.28495   1.00
C4       1.00016    0.50035    0.72915   1.00
C4       0.99984    0.49965    0.77085   1.00
C3       1.03530    0.49850    0.70751   1.00
C3       1.02521    0.47535    0.79252   1.00
C3       0.96509    0.50207    0.70738   1.00
C3       0.97458    0.52404    0.79259   1.00
C2       1.00015    0.49993    0.64482   1.00
C2       1.00015    0.49993    0.85518   1.00
C3a      1.03545    0.49830    0.66599   1.00
C3       1.02529    0.47553    0.83382   1.00
C3       0.96516    0.50186    0.66611   1.00
C3a      0.97457    0.52431    0.83403   1.00
H1       1.06283    0.49752    0.72294   1.00
H1       1.04492    0.45575    0.77750   1.00
C5       1.07346    0.49650    0.64410   1.00
H1       1.04513    0.45645    0.84933   1.00
H1       0.93768    0.50291    0.65056   1.00
C5       0.94690    0.55095    0.85535   1.00
H1       0.95536    0.54402    0.77747   1.00
H1       0.93726    0.50280    0.72230   1.00
H2       0.91651    0.54203    0.84837   1.00
H2       0.95052    0.54825    0.88747   1.00
N1       0.95343    0.59156    0.84395   1.00
C6       0.94830    0.60679    0.80810   1.00
C6       0.96530    0.62064    0.86757   1.00
C6       0.95718    0.64604    0.80873   1.00
C6       0.96800    0.65484    0.84656   1.00
H3       0.93865    0.59048    0.78281   1.00
H3       0.97179    0.61724    0.89831   1.00
H3       0.95586    0.66603    0.78436   1.00
H3       0.97683    0.68304    0.85758   1.00
H2       1.06724    0.49604    0.61228   1.00
H2       1.09163    0.52268    0.65001   1.00
N1       1.09531    0.46168    0.65523   1.00
C6       1.10685    0.43031    0.63078   1.00
C6       1.10978    0.45210    0.69285   1.00
C6       1.12713    0.40332    0.65277   1.00
C6       1.12891    0.41670    0.69091   1.00
H3       1.10053    0.42811    0.59992   1.00
H3       1.10589    0.46975    0.71876   1.00
H3       1.13944    0.37633    0.64205   1.00
H3       1.14281    0.40191    0.71505   1.00
C4       1.00035    0.72915    0.50016   1.00
C4       0.99965    0.77085    0.49984   1.00
C3       0.99850    0.70751    0.53530   1.00
C3       0.97535    0.79252    0.52521   1.00
C3       1.00207    0.70738    0.46509   1.00
C3       1.02404    0.79259    0.47458   1.00
C2       0.99993    0.64482    0.50015   1.00
C2       0.99993    0.85518    0.50015   1.00
C3a      0.99830    0.66599    0.53545   1.00
C3       0.97553    0.83382    0.52529   1.00
C3       1.00186    0.66611    0.46516   1.00
C3a      1.02431    0.83403    0.47457   1.00
H1       0.99752    0.72294    0.56283   1.00
H1       0.95575    0.77750    0.54492   1.00
C5       0.99650    0.64410    0.57346   1.00
H1       0.95645    0.84933    0.54513   1.00
H1       1.00291    0.65056    0.43768   1.00
C5       1.05095    0.85535    0.44690   1.00
H1       1.04402    0.77747    0.45536   1.00
H1       1.00280    0.72230    0.43726   1.00
H2       1.04203    0.84837    0.41651   1.00
H2       1.04825    0.88747    0.45052   1.00
N1       1.09156    0.84395    0.45343   1.00
C6       1.10679    0.80810    0.44830   1.00
C6       1.12064    0.86757    0.46530   1.00
C6       1.14604    0.80873    0.45718   1.00
C6       1.15484    0.84656    0.46800   1.00
H3       1.09048    0.78281    0.43865   1.00
H3       1.11724    0.89831    0.47179   1.00
H3       1.16603    0.78436    0.45586   1.00
H3       1.18304    0.85758    0.47683   1.00
H2       0.99604    0.61228    0.56724   1.00
H2       1.02268    0.65001    0.59163   1.00
N1       0.96168    0.65523    0.59531   1.00
C6       0.93031    0.63078    0.60685   1.00
C6       0.95210    0.69285    0.60978   1.00
C6       0.90332    0.65277    0.62713   1.00
C6       0.91670    0.69091    0.62891   1.00
H3       0.92811    0.59992    0.60053   1.00
H3       0.96975    0.71876    0.60589   1.00
H3       0.87633    0.64205    0.63944   1.00
H3       0.90191    0.71505    0.64281   1.00
C4       0.77085    0.50016    0.49965   1.00
C4       0.72915    0.49984    0.50035   1.00
C3       0.79249    0.53530    0.50150   1.00
C3       0.70748    0.52521    0.52465   1.00
C3       0.79262    0.46509    0.49793   1.00
C3       0.70741    0.47458    0.47596   1.00
C2       0.85518    0.50015    0.50007   1.00
C2       0.64482    0.50015    0.50007   1.00
C3a      0.83401    0.53545    0.50170   1.00
C3       0.66618    0.52529    0.52447   1.00
C3       0.83389    0.46516    0.49814   1.00
C3a      0.66597    0.47457    0.47569   1.00
H1       0.77706    0.56283    0.50248   1.00
H1       0.72250    0.54492    0.54425   1.00
C5       0.85590    0.57346    0.50350   1.00
H1       0.65067    0.54513    0.54355   1.00
H1       0.84944    0.43768    0.49709   1.00
C5       0.64465    0.44690    0.44905   1.00
H1       0.72253    0.45536    0.45598   1.00
H1       0.77770    0.43726    0.49720   1.00
H2       0.65163    0.41651    0.45797   1.00
H2       0.61253    0.45052    0.45175   1.00
N1       0.65605    0.45343    0.40844   1.00
C6       0.69190    0.44830    0.39321   1.00
C6       0.63243    0.46530    0.37936   1.00
C6       0.69127    0.45718    0.35396   1.00
C6       0.65344    0.46800    0.34516   1.00
H3       0.71719    0.43865    0.40952   1.00
H3       0.60169    0.47179    0.38276   1.00
H3       0.71564    0.45586    0.33397   1.00
H3       0.64242    0.47683    0.31696   1.00
H2       0.88772    0.56724    0.50396   1.00
H2       0.84999    0.59163    0.47732   1.00
N1       0.84477    0.59531    0.53832   1.00
C6       0.86922    0.60685    0.56969   1.00
C6       0.80715    0.60978    0.54790   1.00
C6       0.84723    0.62713    0.59668   1.00
C6       0.80909    0.62891    0.58330   1.00
H3       0.90008    0.60053    0.57189   1.00
H3       0.78124    0.60589    0.53025   1.00
H3       0.85795    0.63944    0.62367   1.00
H3       0.78495    0.64281    0.59809   1.00
C4       1.22915    0.50016    0.50035   1.00
C4       1.27085    0.49984    0.49965   1.00
C3       1.20751    0.53530    0.49850   1.00
C3       1.29252    0.52521    0.47535   1.00
C3       1.20738    0.46509    0.50207   1.00
C3       1.29259    0.47458    0.52404   1.00
C2       1.14482    0.50015    0.49993   1.00
C2       1.35518    0.50015    0.49993   1.00
C3a      1.16599    0.53545    0.49830   1.00
C3       1.33382    0.52529    0.47553   1.00
C3       1.16611    0.46516    0.50186   1.00
C3a      1.33403    0.47457    0.52431   1.00
H1       1.22294    0.56283    0.49752   1.00
H1       1.27750    0.54492    0.45575   1.00
C5       1.14410    0.57346    0.49650   1.00
H1       1.34933    0.54513    0.45645   1.00
H1       1.15056    0.43768    0.50291   1.00
C5       1.35535    0.44690    0.55095   1.00
H1       1.27747    0.45536    0.54402   1.00
H1       1.22230    0.43726    0.50280   1.00
H2       1.34837    0.41651    0.54203   1.00
H2       1.38747    0.45052    0.54825   1.00
N1       1.34395    0.45343    0.59156   1.00
C6       1.30810    0.44830    0.60679   1.00
C6       1.36757    0.46530    0.62064   1.00
C6       1.30873    0.45718    0.64604   1.00
C6       1.34656    0.46800    0.65484   1.00
H3       1.28281    0.43865    0.59048   1.00
H3       1.39831    0.47179    0.61724   1.00
H3       1.28436    0.45586    0.66603   1.00
H3       1.35758    0.47683    0.68304   1.00
H2       1.11228    0.56724    0.49604   1.00
H2       1.15001    0.59163    0.52268   1.00
N1       1.15523    0.59531    0.46168   1.00
C6       1.13078    0.60685    0.43031   1.00
C6       1.19285    0.60978    0.45210   1.00
C6       1.15277    0.62713    0.40332   1.00
C6       1.19091    0.62891    0.41670   1.00
H3       1.09992    0.60053    0.42811   1.00
H3       1.21876    0.60589    0.46975   1.00
H3       1.14205    0.63944    0.37633   1.00
H3       1.21505    0.64281    0.40191   1.00
C4       0.99965    0.27085    0.50016   1.00
C4       1.00035    0.22915    0.49984   1.00
C3       1.00150    0.29249    0.53530   1.00
C3       1.02465    0.20748    0.52521   1.00
C3       0.99793    0.29262    0.46509   1.00
C3       0.97596    0.20741    0.47458   1.00
C2       1.00007    0.35518    0.50015   1.00
C2       1.00007    0.14482    0.50015   1.00
C3a      1.00170    0.33401    0.53545   1.00
C3       1.02447    0.16618    0.52529   1.00
C3       0.99814    0.33389    0.46516   1.00
C3a      0.97569    0.16597    0.47457   1.00
H1       1.00248    0.27706    0.56283   1.00
H1       1.04425    0.22250    0.54492   1.00
C5       1.00350    0.35590    0.57346   1.00
H1       1.04355    0.15067    0.54513   1.00
H1       0.99709    0.34944    0.43768   1.00
C5       0.94905    0.14465    0.44690   1.00
H1       0.95598    0.22253    0.45536   1.00
H1       0.99720    0.27770    0.43726   1.00
H2       0.95797    0.15163    0.41651   1.00
H2       0.95175    0.11253    0.45052   1.00
N1       0.90844    0.15605    0.45343   1.00
C6       0.89321    0.19190    0.44830   1.00
C6       0.87936    0.13243    0.46530   1.00
C6       0.85396    0.19127    0.45718   1.00
C6       0.84516    0.15344    0.46800   1.00
H3       0.90952    0.21719    0.43865   1.00
H3       0.88276    0.10169    0.47179   1.00
H3       0.83397    0.21564    0.45586   1.00
H3       0.81696    0.14242    0.47683   1.00
H2       1.00396    0.38772    0.56724   1.00
H2       0.97732    0.34999    0.59163   1.00
N1       1.03832    0.34477    0.59531   1.00
C6       1.06969    0.36922    0.60685   1.00
C6       1.04790    0.30715    0.60978   1.00
C6       1.09668    0.34723    0.62713   1.00
C6       1.08330    0.30909    0.62891   1.00
H3       1.07189    0.40008    0.60053   1.00
H3       1.03025    0.28124    0.60589   1.00
H3       1.12367    0.35795    0.63944   1.00
H3       1.09809    0.28495    0.64281   1.00
C4       1.00016    0.49965    0.27085   1.00
C4       0.99984    0.50035    0.22915   1.00
C3       1.03530    0.50150    0.29249   1.00
C3       1.02521    0.52465    0.20748   1.00
C3       0.96509    0.49793    0.29262   1.00
C3       0.97458    0.47596    0.20741   1.00
C2       1.00015    0.50007    0.35518   1.00
C2       1.00015    0.50007    0.14482   1.00
C3a      1.03545    0.50170    0.33401   1.00
C3       1.02529    0.52447    0.16618   1.00
C3       0.96516    0.49814    0.33389   1.00
C3a      0.97457    0.47569    0.16597   1.00
H1       1.06283    0.50248    0.27706   1.00
H1       1.04492    0.54425    0.22250   1.00
C5       1.07346    0.50350    0.35590   1.00
H1       1.04513    0.54355    0.15067   1.00
H1       0.93768    0.49709    0.34944   1.00
C5       0.94690    0.44905    0.14465   1.00
H1       0.95536    0.45598    0.22253   1.00
H1       0.93726    0.49720    0.27770   1.00
H2       0.91651    0.45797    0.15163   1.00
H2       0.95052    0.45175    0.11253   1.00
N1       0.95343    0.40844    0.15605   1.00
C6       0.94830    0.39321    0.19190   1.00
C6       0.96530    0.37936    0.13243   1.00
C6       0.95718    0.35396    0.19127   1.00
C6       0.96800    0.34516    0.15344   1.00
H3       0.93865    0.40952    0.21719   1.00
H3       0.97179    0.38276    0.10169   1.00
H3       0.95586    0.33397    0.21564   1.00
H3       0.97683    0.31696    0.14242   1.00
H2       1.06724    0.50396    0.38772   1.00
H2       1.09163    0.47732    0.34999   1.00
N1       1.09531    0.53832    0.34477   1.00
C6       1.10685    0.56969    0.36922   1.00
C6       1.10978    0.54790    0.30715   1.00
C6       1.12713    0.59668    0.34723   1.00
C6       1.12891    0.58330    0.30909   1.00
H3       1.10053    0.57189    0.40008   1.00
H3       1.10589    0.53025    0.28124   1.00
H3       1.13944    0.62367    0.35795   1.00
H3       1.14281    0.59809    0.28495   1.00
