data_IRMOF10_SG202_interpen_Ligand7lp_label_d.

_audit_creation_method             'generated by an auxiliary program of Tobunporous'

_symmetry_space_group_name_H-M     'P 1'
_symmetry_Int_Tables_number        1
_symmetry_cell_setting             triclinic

_cell_length_a                    34.2800
_cell_length_b                    34.2800
_cell_length_c                    34.2800
_cell_angle_alpha                 90.0000
_cell_angle_beta                  90.0000
_cell_angle_gamma                 90.0000

loop_
_atom_site_label
_atom_site_fract_x
_atom_site_fract_y
_atom_site_fract_z
_atom_site_occupancy
O1       0.75000    0.75000    0.75000   1.00
Zn1      0.71720    0.78280    0.78280   1.00
Zn1      0.78280    0.71720    0.78280   1.00
Zn1      0.78280    0.78280    0.71720   1.00
Zn1      0.71720    0.71720    0.71720   1.00
O2       0.72650    0.77350    0.83820   1.00
O2       0.72650    0.83820    0.77350   1.00
O2       0.66180    0.77350    0.77350   1.00
O2       0.77350    0.72650    0.83820   1.00
O2       0.83820    0.72650    0.77350   1.00
O2       0.77350    0.66180    0.77350   1.00
O2       0.77350    0.83820    0.72650   1.00
O2       0.83820    0.77350    0.72650   1.00
O2       0.77350    0.77350    0.66180   1.00
O2       0.66180    0.72650    0.72650   1.00
O2       0.72650    0.66180    0.72650   1.00
O2       0.72650    0.72650    0.66180   1.00
C1       0.75000    0.75000    0.85520   1.00
C1       0.75000    0.85520    0.75000   1.00
C1       0.64480    0.75000    0.75000   1.00
C1       0.85520    0.75000    0.75000   1.00
C1       0.75000    0.64480    0.75000   1.00
C1       0.75000    0.75000    0.64480   1.00
O1       0.25000    0.25000    0.75000   1.00
Zn1      0.21720    0.28280    0.78280   1.00
Zn1      0.28280    0.21720    0.78280   1.00
Zn1      0.28280    0.28280    0.71720   1.00
Zn1      0.21720    0.21720    0.71720   1.00
O2       0.22650    0.27350    0.83820   1.00
O2       0.22650    0.33820    0.77350   1.00
O2       0.16180    0.27350    0.77350   1.00
O2       0.27350    0.22650    0.83820   1.00
O2       0.33820    0.22650    0.77350   1.00
O2       0.27350    0.16180    0.77350   1.00
O2       0.27350    0.33820    0.72650   1.00
O2       0.33820    0.27350    0.72650   1.00
O2       0.27350    0.27350    0.66180   1.00
O2       0.16180    0.22650    0.72650   1.00
O2       0.22650    0.16180    0.72650   1.00
O2       0.22650    0.22650    0.66180   1.00
C1       0.25000    0.25000    0.85520   1.00
C1       0.25000    0.35520    0.75000   1.00
C1       0.14480    0.25000    0.75000   1.00
C1       0.35520    0.25000    0.75000   1.00
C1       0.25000    0.14480    0.75000   1.00
C1       0.25000    0.25000    0.64480   1.00
O1       0.25000    0.75000    0.25000   1.00
Zn1      0.21720    0.78280    0.28280   1.00
Zn1      0.28280    0.71720    0.28280   1.00
Zn1      0.28280    0.78280    0.21720   1.00
Zn1      0.21720    0.71720    0.21720   1.00
O2       0.22650    0.77350    0.33820   1.00
O2       0.22650    0.83820    0.27350   1.00
O2       0.16180    0.77350    0.27350   1.00
O2       0.27350    0.72650    0.33820   1.00
O2       0.33820    0.72650    0.27350   1.00
O2       0.27350    0.66180    0.27350   1.00
O2       0.27350    0.83820    0.22650   1.00
O2       0.33820    0.77350    0.22650   1.00
O2       0.27350    0.77350    0.16180   1.00
O2       0.16180    0.72650    0.22650   1.00
O2       0.22650    0.66180    0.22650   1.00
O2       0.22650    0.72650    0.16180   1.00
C1       0.25000    0.75000    0.35520   1.00
C1       0.25000    0.85520    0.25000   1.00
C1       0.14480    0.75000    0.25000   1.00
C1       0.35520    0.75000    0.25000   1.00
C1       0.25000    0.64480    0.25000   1.00
C1       0.25000    0.75000    0.14480   1.00
O1       0.75000    0.25000    0.25000   1.00
Zn1      0.71720    0.28280    0.28280   1.00
Zn1      0.78280    0.21720    0.28280   1.00
Zn1      0.78280    0.28280    0.21720   1.00
Zn1      0.71720    0.21720    0.21720   1.00
O2       0.72650    0.27350    0.33820   1.00
O2       0.72650    0.33820    0.27350   1.00
O2       0.66180    0.27350    0.27350   1.00
O2       0.77350    0.22650    0.33820   1.00
O2       0.83820    0.22650    0.27350   1.00
O2       0.77350    0.16180    0.27350   1.00
O2       0.77350    0.33820    0.22650   1.00
O2       0.83820    0.27350    0.22650   1.00
O2       0.77350    0.27350    0.16180   1.00
O2       0.66180    0.22650    0.22650   1.00
O2       0.72650    0.16180    0.22650   1.00
O2       0.72650    0.22650    0.16180   1.00
C1       0.75000    0.25000    0.35520   1.00
C1       0.75000    0.35520    0.25000   1.00
C1       0.64480    0.25000    0.25000   1.00
C1       0.85520    0.25000    0.25000   1.00
C1       0.75000    0.14480    0.25000   1.00
C1       0.75000    0.25000    0.14480   1.00
O1       0.25000    0.25000    0.25000   1.00
Zn1      0.28280    0.21720    0.21720   1.00
Zn1      0.21720    0.28280    0.21720   1.00
Zn1      0.21720    0.21720    0.28280   1.00
Zn1      0.28280    0.28280    0.28280   1.00
O2       0.27350    0.22650    0.16180   1.00
O2       0.27350    0.16180    0.22650   1.00
O2       0.33820    0.22650    0.22650   1.00
O2       0.22650    0.27350    0.16180   1.00
O2       0.16180    0.27350    0.22650   1.00
O2       0.22650    0.33820    0.22650   1.00
O2       0.22650    0.16180    0.27350   1.00
O2       0.16180    0.22650    0.27350   1.00
O2       0.22650    0.22650    0.33820   1.00
O2       0.33820    0.27350    0.27350   1.00
O2       0.27350    0.33820    0.27350   1.00
O2       0.27350    0.27350    0.33820   1.00
C1       0.25000    0.25000    0.14480   1.00
C1       0.25000    0.14480    0.25000   1.00
C1       0.35520    0.25000    0.25000   1.00
C1       0.14480    0.25000    0.25000   1.00
C1       0.25000    0.35520    0.25000   1.00
C1       0.25000    0.25000    0.35520   1.00
O1       0.75000    0.75000    0.25000   1.00
Zn1      0.78280    0.71720    0.21720   1.00
Zn1      0.71720    0.78280    0.21720   1.00
Zn1      0.71720    0.71720    0.28280   1.00
Zn1      0.78280    0.78280    0.28280   1.00
O2       0.77350    0.72650    0.16180   1.00
O2       0.77350    0.66180    0.22650   1.00
O2       0.83820    0.72650    0.22650   1.00
O2       0.72650    0.77350    0.16180   1.00
O2       0.66180    0.77350    0.22650   1.00
O2       0.72650    0.83820    0.22650   1.00
O2       0.72650    0.66180    0.27350   1.00
O2       0.66180    0.72650    0.27350   1.00
O2       0.72650    0.72650    0.33820   1.00
O2       0.83820    0.77350    0.27350   1.00
O2       0.77350    0.83820    0.27350   1.00
O2       0.77350    0.77350    0.33820   1.00
C1       0.75000    0.75000    0.14480   1.00
C1       0.75000    0.64480    0.25000   1.00
C1       0.85520    0.75000    0.25000   1.00
C1       0.64480    0.75000    0.25000   1.00
C1       0.75000    0.85520    0.25000   1.00
C1       0.75000    0.75000    0.35520   1.00
O1       0.75000    0.25000    0.75000   1.00
Zn1      0.78280    0.21720    0.71720   1.00
Zn1      0.71720    0.28280    0.71720   1.00
Zn1      0.71720    0.21720    0.78280   1.00
Zn1      0.78280    0.28280    0.78280   1.00
O2       0.77350    0.22650    0.66180   1.00
O2       0.77350    0.16180    0.72650   1.00
O2       0.83820    0.22650    0.72650   1.00
O2       0.72650    0.27350    0.66180   1.00
O2       0.66180    0.27350    0.72650   1.00
O2       0.72650    0.33820    0.72650   1.00
O2       0.72650    0.16180    0.77350   1.00
O2       0.66180    0.22650    0.77350   1.00
O2       0.72650    0.22650    0.83820   1.00
O2       0.83820    0.27350    0.77350   1.00
O2       0.77350    0.33820    0.77350   1.00
O2       0.77350    0.27350    0.83820   1.00
C1       0.75000    0.25000    0.64480   1.00
C1       0.75000    0.14480    0.75000   1.00
C1       0.85520    0.25000    0.75000   1.00
C1       0.64480    0.25000    0.75000   1.00
C1       0.75000    0.35520    0.75000   1.00
C1       0.75000    0.25000    0.85520   1.00
O1       0.25000    0.75000    0.75000   1.00
Zn1      0.28280    0.71720    0.71720   1.00
Zn1      0.21720    0.78280    0.71720   1.00
Zn1      0.21720    0.71720    0.78280   1.00
Zn1      0.28280    0.78280    0.78280   1.00
O2       0.27350    0.72650    0.66180   1.00
O2       0.27350    0.66180    0.72650   1.00
O2       0.33820    0.72650    0.72650   1.00
O2       0.22650    0.77350    0.66180   1.00
O2       0.16180    0.77350    0.72650   1.00
O2       0.22650    0.83820    0.72650   1.00
O2       0.22650    0.66180    0.77350   1.00
O2       0.16180    0.72650    0.77350   1.00
O2       0.22650    0.72650    0.83820   1.00
O2       0.33820    0.77350    0.77350   1.00
O2       0.27350    0.83820    0.77350   1.00
O2       0.27350    0.77350    0.83820   1.00
C1       0.25000    0.75000    0.64480   1.00
C1       0.25000    0.64480    0.75000   1.00
C1       0.35520    0.75000    0.75000   1.00
C1       0.14480    0.75000    0.75000   1.00
C1       0.25000    0.85520    0.75000   1.00
C1       0.25000    0.75000    0.85520   1.00
O1       1.00000    1.00000    1.00000   1.00
Zn1      0.96720    1.03280    1.03280   1.00
Zn1      1.03280    0.96720    1.03280   1.00
Zn1      1.03280    1.03280    0.96720   1.00
Zn1      0.96720    0.96720    0.96720   1.00
O2       0.97650    1.02350    1.08820   1.00
O2       0.97650    1.08820    1.02350   1.00
O2       0.91180    1.02350    1.02350   1.00
O2       1.02350    0.97650    1.08820   1.00
O2       1.08820    0.97650    1.02350   1.00
O2       1.02350    0.91180    1.02350   1.00
O2       1.02350    1.08820    0.97650   1.00
O2       1.08820    1.02350    0.97650   1.00
O2       1.02350    1.02350    0.91180   1.00
O2       0.91180    0.97650    0.97650   1.00
O2       0.97650    0.91180    0.97650   1.00
O2       0.97650    0.97650    0.91180   1.00
C1       1.00000    1.00000    1.10520   1.00
C1       1.00000    1.10520    1.00000   1.00
C1       0.89480    1.00000    1.00000   1.00
C1       1.10520    1.00000    1.00000   1.00
C1       1.00000    0.89480    1.00000   1.00
C1       1.00000    1.00000    0.89480   1.00
O1       0.50000    0.50000    1.00000   1.00
Zn1      0.46720    0.53280    1.03280   1.00
Zn1      0.53280    0.46720    1.03280   1.00
Zn1      0.53280    0.53280    0.96720   1.00
Zn1      0.46720    0.46720    0.96720   1.00
O2       0.47650    0.52350    1.08820   1.00
O2       0.47650    0.58820    1.02350   1.00
O2       0.41180    0.52350    1.02350   1.00
O2       0.52350    0.47650    1.08820   1.00
O2       0.58820    0.47650    1.02350   1.00
O2       0.52350    0.41180    1.02350   1.00
O2       0.52350    0.58820    0.97650   1.00
O2       0.58820    0.52350    0.97650   1.00
O2       0.52350    0.52350    0.91180   1.00
O2       0.41180    0.47650    0.97650   1.00
O2       0.47650    0.41180    0.97650   1.00
O2       0.47650    0.47650    0.91180   1.00
C1       0.50000    0.50000    1.10520   1.00
C1       0.50000    0.60520    1.00000   1.00
C1       0.39480    0.50000    1.00000   1.00
C1       0.60520    0.50000    1.00000   1.00
C1       0.50000    0.39480    1.00000   1.00
C1       0.50000    0.50000    0.89480   1.00
O1       0.50000    1.00000    0.50000   1.00
Zn1      0.46720    1.03280    0.53280   1.00
Zn1      0.53280    0.96720    0.53280   1.00
Zn1      0.53280    1.03280    0.46720   1.00
Zn1      0.46720    0.96720    0.46720   1.00
O2       0.47650    1.02350    0.58820   1.00
O2       0.47650    1.08820    0.52350   1.00
O2       0.41180    1.02350    0.52350   1.00
O2       0.52350    0.97650    0.58820   1.00
O2       0.58820    0.97650    0.52350   1.00
O2       0.52350    0.91180    0.52350   1.00
O2       0.52350    1.08820    0.47650   1.00
O2       0.58820    1.02350    0.47650   1.00
O2       0.52350    1.02350    0.41180   1.00
O2       0.41180    0.97650    0.47650   1.00
O2       0.47650    0.91180    0.47650   1.00
O2       0.47650    0.97650    0.41180   1.00
C1       0.50000    1.00000    0.60520   1.00
C1       0.50000    1.10520    0.50000   1.00
C1       0.39480    1.00000    0.50000   1.00
C1       0.60520    1.00000    0.50000   1.00
C1       0.50000    0.89480    0.50000   1.00
C1       0.50000    1.00000    0.39480   1.00
O1       1.00000    0.50000    0.50000   1.00
Zn1      0.96720    0.53280    0.53280   1.00
Zn1      1.03280    0.46720    0.53280   1.00
Zn1      1.03280    0.53280    0.46720   1.00
Zn1      0.96720    0.46720    0.46720   1.00
O2       0.97650    0.52350    0.58820   1.00
O2       0.97650    0.58820    0.52350   1.00
O2       0.91180    0.52350    0.52350   1.00
O2       1.02350    0.47650    0.58820   1.00
O2       1.08820    0.47650    0.52350   1.00
O2       1.02350    0.41180    0.52350   1.00
O2       1.02350    0.58820    0.47650   1.00
O2       1.08820    0.52350    0.47650   1.00
O2       1.02350    0.52350    0.41180   1.00
O2       0.91180    0.47650    0.47650   1.00
O2       0.97650    0.41180    0.47650   1.00
O2       0.97650    0.47650    0.41180   1.00
C1       1.00000    0.50000    0.60520   1.00
C1       1.00000    0.60520    0.50000   1.00
C1       0.89480    0.50000    0.50000   1.00
C1       1.10520    0.50000    0.50000   1.00
C1       1.00000    0.39480    0.50000   1.00
C1       1.00000    0.50000    0.39480   1.00
O1       0.50000    0.50000    0.50000   1.00
Zn1      0.53280    0.46720    0.46720   1.00
Zn1      0.46720    0.53280    0.46720   1.00
Zn1      0.46720    0.46720    0.53280   1.00
Zn1      0.53280    0.53280    0.53280   1.00
O2       0.52350    0.47650    0.41180   1.00
O2       0.52350    0.41180    0.47650   1.00
O2       0.58820    0.47650    0.47650   1.00
O2       0.47650    0.52350    0.41180   1.00
O2       0.41180    0.52350    0.47650   1.00
O2       0.47650    0.58820    0.47650   1.00
O2       0.47650    0.41180    0.52350   1.00
O2       0.41180    0.47650    0.52350   1.00
O2       0.47650    0.47650    0.58820   1.00
O2       0.58820    0.52350    0.52350   1.00
O2       0.52350    0.58820    0.52350   1.00
O2       0.52350    0.52350    0.58820   1.00
C1       0.50000    0.50000    0.39480   1.00
C1       0.50000    0.39480    0.50000   1.00
C1       0.60520    0.50000    0.50000   1.00
C1       0.39480    0.50000    0.50000   1.00
C1       0.50000    0.60520    0.50000   1.00
C1       0.50000    0.50000    0.60520   1.00
O1       1.00000    1.00000    0.50000   1.00
Zn1      1.03280    0.96720    0.46720   1.00
Zn1      0.96720    1.03280    0.46720   1.00
Zn1      0.96720    0.96720    0.53280   1.00
Zn1      1.03280    1.03280    0.53280   1.00
O2       1.02350    0.97650    0.41180   1.00
O2       1.02350    0.91180    0.47650   1.00
O2       1.08820    0.97650    0.47650   1.00
O2       0.97650    1.02350    0.41180   1.00
O2       0.91180    1.02350    0.47650   1.00
O2       0.97650    1.08820    0.47650   1.00
O2       0.97650    0.91180    0.52350   1.00
O2       0.91180    0.97650    0.52350   1.00
O2       0.97650    0.97650    0.58820   1.00
O2       1.08820    1.02350    0.52350   1.00
O2       1.02350    1.08820    0.52350   1.00
O2       1.02350    1.02350    0.58820   1.00
C1       1.00000    1.00000    0.39480   1.00
C1       1.00000    0.89480    0.50000   1.00
C1       1.10520    1.00000    0.50000   1.00
C1       0.89480    1.00000    0.50000   1.00
C1       1.00000    1.10520    0.50000   1.00
C1       1.00000    1.00000    0.60520   1.00
O1       1.00000    0.50000    1.00000   1.00
Zn1      1.03280    0.46720    0.96720   1.00
Zn1      0.96720    0.53280    0.96720   1.00
Zn1      0.96720    0.46720    1.03280   1.00
Zn1      1.03280    0.53280    1.03280   1.00
O2       1.02350    0.47650    0.91180   1.00
O2       1.02350    0.41180    0.97650   1.00
O2       1.08820    0.47650    0.97650   1.00
O2       0.97650    0.52350    0.91180   1.00
O2       0.91180    0.52350    0.97650   1.00
O2       0.97650    0.58820    0.97650   1.00
O2       0.97650    0.41180    1.02350   1.00
O2       0.91180    0.47650    1.02350   1.00
O2       0.97650    0.47650    1.08820   1.00
O2       1.08820    0.52350    1.02350   1.00
O2       1.02350    0.58820    1.02350   1.00
O2       1.02350    0.52350    1.08820   1.00
C1       1.00000    0.50000    0.89480   1.00
C1       1.00000    0.39480    1.00000   1.00
C1       1.10520    0.50000    1.00000   1.00
C1       0.89480    0.50000    1.00000   1.00
C1       1.00000    0.60520    1.00000   1.00
C1       1.00000    0.50000    1.10520   1.00
O1       0.50000    1.00000    1.00000   1.00
Zn1      0.53280    0.96720    0.96720   1.00
Zn1      0.46720    1.03280    0.96720   1.00
Zn1      0.46720    0.96720    1.03280   1.00
Zn1      0.53280    1.03280    1.03280   1.00
O2       0.52350    0.97650    0.91180   1.00
O2       0.52350    0.91180    0.97650   1.00
O2       0.58820    0.97650    0.97650   1.00
O2       0.47650    1.02350    0.91180   1.00
O2       0.41180    1.02350    0.97650   1.00
O2       0.47650    1.08820    0.97650   1.00
O2       0.47650    0.91180    1.02350   1.00
O2       0.41180    0.97650    1.02350   1.00
O2       0.47650    0.97650    1.08820   1.00
O2       0.58820    1.02350    1.02350   1.00
O2       0.52350    1.08820    1.02350   1.00
O2       0.52350    1.02350    1.08820   1.00
C1       0.50000    1.00000    0.89480   1.00
C1       0.50000    0.89480    1.00000   1.00
C1       0.60520    1.00000    1.00000   1.00
C1       0.39480    1.00000    1.00000   1.00
C1       0.50000    1.10520    1.00000   1.00
C1       0.50000    1.00000    1.10520   1.00
C5       0.76659    0.87569    1.13218   1.00
H2       0.73872    0.86939    1.14745   1.00
H2       0.75991    0.89922    1.11090   1.00
C5       0.79718    0.88972    1.16194   1.00
C5       0.79159    0.93332    1.17123   1.00
H2       0.82710    0.88515    1.15015   1.00
O3       0.82076    0.75286    0.98000   1.00
C4       0.74965    0.74977    1.02100   1.00
C3c      0.74756    0.78463    1.04243   1.00
H1       0.74579    0.81222    1.02725   1.00
C3d      0.75137    0.71409    1.04135   1.00
C3       0.74827    0.78458    1.08354   1.00
O2       0.74133    0.81930    1.10248   1.00
C3       0.75284    0.71398    1.08227   1.00
H1       0.75556    0.68600    1.09657   1.00
C2       0.75118    0.74899    1.10439   1.00
C5       0.84000    0.71645    0.97879   1.00
H2       0.84689    0.70719    0.94838   1.00
H2       0.82192    0.69318    0.99266   1.00
C5       0.87815    0.72060    1.00129   1.00
H2       0.87133    0.73091    1.03137   1.00
H2       0.89610    0.74364    0.98698   1.00
C5       0.90044    0.68162    1.00262   1.00
H2       0.90710    0.67101    0.97268   1.00
H2       0.88309    0.65896    1.01811   1.00
C5       0.93935    0.68689    1.02445   1.00
C5       0.71968    0.66401    1.01105   1.00
C5       0.77709    0.83817    1.11070   1.00
H2       0.70405    0.68406    0.99088   1.00
H2       0.70091    0.65871    1.03712   1.00
H2       0.79277    0.84503    1.08300   1.00
H2       0.79700    0.81983    1.12895   1.00
H2       0.79424    0.87385    1.19030   1.00
H2       0.68379    0.63054    0.94247   1.00
H2       0.66435    0.61063    0.98763   1.00
C2       0.75205    0.74828    0.89605   1.00
C3       0.71599    0.74880    0.91597   1.00
O2       0.68198    0.73912    0.89674   1.00
C3       0.78681    0.75021    0.91826   1.00
H1       0.81485    0.75088    0.90385   1.00
C3a      0.71545    0.75019    0.95713   1.00
H1       0.68769    0.74832    0.97202   1.00
C3b      0.78619    0.75032    0.95922   1.00
C4       0.75035    0.75023    0.97900   1.00
O3       0.75645    0.67919    1.02167   1.00
C5       0.66084    0.77314    0.88720   1.00
H2       0.65310    0.79013    0.91391   1.00
C5       0.62358    0.76002    0.86674   1.00
H2       0.67797    0.79229    0.86726   1.00
H2       0.60230    0.75036    0.88932   1.00
H2       0.63091    0.73374    0.84907   1.00
C5       0.60562    0.79201    0.84082   1.00
H2       0.60137    0.81903    0.85824   1.00
C5       0.56587    0.77889    0.82453   1.00
H2       0.62459    0.79851    0.81507   1.00
C5       0.72667    0.62536    0.99017   1.00
H2       0.73604    0.60332    1.01215   1.00
H2       0.75148    0.62928    0.96952   1.00
C5       0.69020    0.61135    0.96800   1.00
C5       0.69687    0.56981    0.95225   1.00
H2       0.76659    0.93693    1.19286   1.00
C5       0.82937    0.94978    1.18912   1.00
H2       0.78449    0.94980    1.14323   1.00
C5       0.95710    0.64660    1.03337   1.00
H2       0.96040    0.70434    1.00551   1.00
H2       0.93396    0.70318    1.05293   1.00
C5       0.54544    0.81380    0.80497   1.00
H2       0.57049    0.75477    0.80211   1.00
H2       0.54693    0.76747    0.84937   1.00
H2       0.72587    0.56863    0.93602   1.00
H2       0.69747    0.54830    0.97761   1.00
C5       0.66354    0.55891    0.92417   1.00
H2       0.84773    0.92480    1.20116   1.00
H2       0.84661    0.96592    1.16571   1.00
H2       0.82173    0.97080    1.21374   1.00
H2       0.93922    0.62301    1.01820   1.00
H2       0.98844    0.64559    1.02229   1.00
H2       0.95677    0.64136    1.06621   1.00
H2       0.56797    0.83224    0.78889   1.00
H2       0.52275    0.80267    0.78336   1.00
H2       0.53049    0.83233    0.82819   1.00
H2       0.67217    0.56693    0.89307   1.00
H2       0.65775    0.52621    0.92598   1.00
H2       0.63601    0.57553    0.93266   1.00
C5       0.87569    1.13218    0.76659   1.00
H2       0.86939    1.14745    0.73872   1.00
H2       0.89922    1.11090    0.75991   1.00
C5       0.88972    1.16194    0.79718   1.00
C5       0.93332    1.17123    0.79159   1.00
H2       0.88515    1.15015    0.82710   1.00
O3       0.75286    0.98000    0.82076   1.00
C4       0.74977    1.02100    0.74965   1.00
C3c      0.78463    1.04243    0.74756   1.00
H1       0.81222    1.02725    0.74579   1.00
C3d      0.71409    1.04135    0.75137   1.00
C3       0.78458    1.08354    0.74827   1.00
O2       0.81930    1.10248    0.74133   1.00
C3       0.71398    1.08227    0.75284   1.00
H1       0.68600    1.09657    0.75556   1.00
C2       0.74899    1.10439    0.75118   1.00
C5       0.71645    0.97879    0.84000   1.00
H2       0.70719    0.94838    0.84689   1.00
H2       0.69318    0.99266    0.82192   1.00
C5       0.72060    1.00129    0.87815   1.00
H2       0.73091    1.03137    0.87133   1.00
H2       0.74364    0.98698    0.89610   1.00
C5       0.68162    1.00262    0.90044   1.00
H2       0.67101    0.97268    0.90710   1.00
H2       0.65896    1.01811    0.88309   1.00
C5       0.68689    1.02445    0.93935   1.00
C5       0.66401    1.01105    0.71968   1.00
C5       0.83817    1.11070    0.77709   1.00
H2       0.68406    0.99088    0.70405   1.00
H2       0.65871    1.03712    0.70091   1.00
H2       0.84503    1.08300    0.79277   1.00
H2       0.81983    1.12895    0.79700   1.00
H2       0.87385    1.19030    0.79424   1.00
H2       0.63054    0.94247    0.68379   1.00
H2       0.61063    0.98763    0.66435   1.00
C2       0.74828    0.89605    0.75205   1.00
C3       0.74880    0.91597    0.71599   1.00
O2       0.73912    0.89674    0.68198   1.00
C3       0.75021    0.91826    0.78681   1.00
H1       0.75088    0.90385    0.81485   1.00
C3a      0.75019    0.95713    0.71545   1.00
H1       0.74832    0.97202    0.68769   1.00
C3b      0.75032    0.95922    0.78619   1.00
C4       0.75023    0.97900    0.75035   1.00
O3       0.67919    1.02167    0.75645   1.00
C5       0.77314    0.88720    0.66084   1.00
H2       0.79013    0.91391    0.65310   1.00
C5       0.76002    0.86674    0.62358   1.00
H2       0.79229    0.86726    0.67797   1.00
H2       0.75036    0.88932    0.60230   1.00
H2       0.73374    0.84907    0.63091   1.00
C5       0.79201    0.84082    0.60562   1.00
H2       0.81903    0.85824    0.60137   1.00
C5       0.77889    0.82453    0.56587   1.00
H2       0.79851    0.81507    0.62459   1.00
C5       0.62536    0.99017    0.72667   1.00
H2       0.60332    1.01215    0.73604   1.00
H2       0.62928    0.96952    0.75148   1.00
C5       0.61135    0.96800    0.69020   1.00
C5       0.56981    0.95225    0.69687   1.00
H2       0.93693    1.19286    0.76659   1.00
C5       0.94978    1.18912    0.82937   1.00
H2       0.94980    1.14323    0.78449   1.00
C5       0.64660    1.03337    0.95710   1.00
H2       0.70434    1.00551    0.96040   1.00
H2       0.70318    1.05293    0.93396   1.00
C5       0.81380    0.80497    0.54544   1.00
H2       0.75477    0.80211    0.57049   1.00
H2       0.76747    0.84937    0.54693   1.00
H2       0.56863    0.93602    0.72587   1.00
H2       0.54830    0.97761    0.69747   1.00
C5       0.55891    0.92417    0.66354   1.00
H2       0.92480    1.20116    0.84773   1.00
H2       0.96592    1.16571    0.84661   1.00
H2       0.97080    1.21374    0.82173   1.00
H2       0.62301    1.01820    0.93922   1.00
H2       0.64559    1.02229    0.98844   1.00
H2       0.64136    1.06621    0.95677   1.00
H2       0.83224    0.78889    0.56797   1.00
H2       0.80267    0.78336    0.52275   1.00
H2       0.83233    0.82819    0.53049   1.00
H2       0.56693    0.89307    0.67217   1.00
H2       0.52621    0.92598    0.65775   1.00
H2       0.57553    0.93266    0.63601   1.00
C5       0.36782    0.76659    0.62431   1.00
H2       0.35255    0.73872    0.63061   1.00
H2       0.38910    0.75991    0.60078   1.00
C5       0.33806    0.79718    0.61028   1.00
C5       0.32877    0.79159    0.56668   1.00
H2       0.34985    0.82710    0.61485   1.00
O3       0.52000    0.82076    0.74714   1.00
C4       0.47900    0.74965    0.75023   1.00
C3c      0.45757    0.74756    0.71537   1.00
H1       0.47275    0.74579    0.68778   1.00
C3d      0.45865    0.75137    0.78591   1.00
C3       0.41646    0.74827    0.71542   1.00
O2       0.39752    0.74133    0.68070   1.00
C3       0.41773    0.75284    0.78602   1.00
H1       0.40343    0.75556    0.81400   1.00
C2       0.39561    0.75118    0.75101   1.00
C5       0.52121    0.84000    0.78355   1.00
H2       0.55162    0.84689    0.79281   1.00
H2       0.50734    0.82192    0.80682   1.00
C5       0.49871    0.87815    0.77940   1.00
H2       0.46863    0.87133    0.76909   1.00
H2       0.51302    0.89610    0.75636   1.00
C5       0.49738    0.90044    0.81838   1.00
H2       0.52732    0.90710    0.82899   1.00
H2       0.48189    0.88309    0.84104   1.00
C5       0.47555    0.93935    0.81311   1.00
C5       0.48895    0.71968    0.83599   1.00
C5       0.38930    0.77709    0.66183   1.00
H2       0.50912    0.70405    0.81594   1.00
H2       0.46288    0.70091    0.84129   1.00
H2       0.41700    0.79277    0.65497   1.00
H2       0.37105    0.79700    0.68017   1.00
H2       0.30970    0.79424    0.62615   1.00
H2       0.55753    0.68379    0.86946   1.00
H2       0.51237    0.66435    0.88937   1.00
C2       0.60395    0.75205    0.75172   1.00
C3       0.58403    0.71599    0.75120   1.00
O2       0.60326    0.68198    0.76088   1.00
C3       0.58174    0.78681    0.74979   1.00
H1       0.59615    0.81485    0.74912   1.00
C3a      0.54287    0.71545    0.74981   1.00
H1       0.52798    0.68769    0.75168   1.00
C3b      0.54078    0.78619    0.74968   1.00
C4       0.52100    0.75035    0.74977   1.00
O3       0.47833    0.75645    0.82081   1.00
C5       0.61280    0.66084    0.72686   1.00
H2       0.58609    0.65310    0.70987   1.00
C5       0.63326    0.62358    0.73998   1.00
H2       0.63274    0.67797    0.70771   1.00
H2       0.61068    0.60230    0.74964   1.00
H2       0.65093    0.63091    0.76626   1.00
C5       0.65918    0.60562    0.70799   1.00
H2       0.64176    0.60137    0.68097   1.00
C5       0.67547    0.56587    0.72111   1.00
H2       0.68493    0.62459    0.70149   1.00
C5       0.50983    0.72667    0.87464   1.00
H2       0.48785    0.73604    0.89668   1.00
H2       0.53048    0.75148    0.87072   1.00
C5       0.53200    0.69020    0.88865   1.00
C5       0.54775    0.69687    0.93019   1.00
H2       0.30714    0.76659    0.56307   1.00
C5       0.31088    0.82937    0.55022   1.00
H2       0.35677    0.78449    0.55020   1.00
C5       0.46663    0.95710    0.85340   1.00
H2       0.49449    0.96040    0.79566   1.00
H2       0.44707    0.93396    0.79682   1.00
C5       0.69503    0.54544    0.68620   1.00
H2       0.69789    0.57049    0.74523   1.00
H2       0.65063    0.54693    0.73253   1.00
H2       0.56398    0.72587    0.93137   1.00
H2       0.52239    0.69747    0.95170   1.00
C5       0.57583    0.66354    0.94109   1.00
H2       0.29884    0.84773    0.57520   1.00
H2       0.33429    0.84661    0.53408   1.00
H2       0.28626    0.82173    0.52920   1.00
H2       0.48180    0.93922    0.87699   1.00
H2       0.47771    0.98844    0.85441   1.00
H2       0.43379    0.95677    0.85864   1.00
H2       0.71111    0.56797    0.66776   1.00
H2       0.71664    0.52275    0.69733   1.00
H2       0.67181    0.53049    0.66767   1.00
H2       0.60693    0.67217    0.93307   1.00
H2       0.57402    0.65775    0.97379   1.00
H2       0.56734    0.63601    0.92447   1.00
C5       1.13218    0.76659    0.87569   1.00
H2       1.14745    0.73872    0.86939   1.00
H2       1.11090    0.75991    0.89922   1.00
C5       1.16194    0.79718    0.88972   1.00
C5       1.17123    0.79159    0.93332   1.00
H2       1.15015    0.82710    0.88515   1.00
O3       0.98000    0.82076    0.75286   1.00
C4       1.02100    0.74965    0.74977   1.00
C3c      1.04243    0.74756    0.78463   1.00
H1       1.02725    0.74579    0.81222   1.00
C3d      1.04135    0.75137    0.71409   1.00
C3       1.08354    0.74827    0.78458   1.00
O2       1.10248    0.74133    0.81930   1.00
C3       1.08227    0.75284    0.71398   1.00
H1       1.09657    0.75556    0.68600   1.00
C2       1.10439    0.75118    0.74899   1.00
C5       0.97879    0.84000    0.71645   1.00
H2       0.94838    0.84689    0.70719   1.00
H2       0.99266    0.82192    0.69318   1.00
C5       1.00129    0.87815    0.72060   1.00
H2       1.03137    0.87133    0.73091   1.00
H2       0.98698    0.89610    0.74364   1.00
C5       1.00262    0.90044    0.68162   1.00
H2       0.97268    0.90710    0.67101   1.00
H2       1.01811    0.88309    0.65896   1.00
C5       1.02445    0.93935    0.68689   1.00
C5       1.01105    0.71968    0.66401   1.00
C5       1.11070    0.77709    0.83817   1.00
H2       0.99088    0.70405    0.68406   1.00
H2       1.03712    0.70091    0.65871   1.00
H2       1.08300    0.79277    0.84503   1.00
H2       1.12895    0.79700    0.81983   1.00
H2       1.19030    0.79424    0.87385   1.00
H2       0.94247    0.68379    0.63054   1.00
H2       0.98763    0.66435    0.61063   1.00
C2       0.89605    0.75205    0.74828   1.00
C3       0.91597    0.71599    0.74880   1.00
O2       0.89674    0.68198    0.73912   1.00
C3       0.91826    0.78681    0.75021   1.00
H1       0.90385    0.81485    0.75088   1.00
C3a      0.95713    0.71545    0.75019   1.00
H1       0.97202    0.68769    0.74832   1.00
C3b      0.95922    0.78619    0.75032   1.00
C4       0.97900    0.75035    0.75023   1.00
O3       1.02167    0.75645    0.67919   1.00
C5       0.88720    0.66084    0.77314   1.00
H2       0.91391    0.65310    0.79013   1.00
C5       0.86674    0.62358    0.76002   1.00
H2       0.86726    0.67797    0.79229   1.00
H2       0.88932    0.60230    0.75036   1.00
H2       0.84907    0.63091    0.73374   1.00
C5       0.84082    0.60562    0.79201   1.00
H2       0.85824    0.60137    0.81903   1.00
C5       0.82453    0.56587    0.77889   1.00
H2       0.81507    0.62459    0.79851   1.00
C5       0.99017    0.72667    0.62536   1.00
H2       1.01215    0.73604    0.60332   1.00
H2       0.96952    0.75148    0.62928   1.00
C5       0.96800    0.69020    0.61135   1.00
C5       0.95225    0.69687    0.56981   1.00
H2       1.19286    0.76659    0.93693   1.00
C5       1.18912    0.82937    0.94978   1.00
H2       1.14323    0.78449    0.94980   1.00
C5       1.03337    0.95710    0.64660   1.00
H2       1.00551    0.96040    0.70434   1.00
H2       1.05293    0.93396    0.70318   1.00
C5       0.80497    0.54544    0.81380   1.00
H2       0.80211    0.57049    0.75477   1.00
H2       0.84937    0.54693    0.76747   1.00
H2       0.93602    0.72587    0.56863   1.00
H2       0.97761    0.69747    0.54830   1.00
C5       0.92417    0.66354    0.55891   1.00
H2       1.20116    0.84773    0.92480   1.00
H2       1.16571    0.84661    0.96592   1.00
H2       1.21374    0.82173    0.97080   1.00
H2       1.01820    0.93922    0.62301   1.00
H2       1.02229    0.98844    0.64559   1.00
H2       1.06621    0.95677    0.64136   1.00
H2       0.78889    0.56797    0.83224   1.00
H2       0.78336    0.52275    0.80267   1.00
H2       0.82819    0.53049    0.83233   1.00
H2       0.89307    0.67217    0.56693   1.00
H2       0.92598    0.65775    0.52621   1.00
H2       0.93266    0.63601    0.57553   1.00
C5       0.62431    0.36782    0.76659   1.00
H2       0.63061    0.35255    0.73872   1.00
H2       0.60078    0.38910    0.75991   1.00
C5       0.61028    0.33806    0.79718   1.00
C5       0.56668    0.32877    0.79159   1.00
H2       0.61485    0.34985    0.82710   1.00
O3       0.74714    0.52000    0.82076   1.00
C4       0.75023    0.47900    0.74965   1.00
C3c      0.71537    0.45757    0.74756   1.00
H1       0.68778    0.47275    0.74579   1.00
C3d      0.78591    0.45865    0.75137   1.00
C3       0.71542    0.41646    0.74827   1.00
O2       0.68070    0.39752    0.74133   1.00
C3       0.78602    0.41773    0.75284   1.00
H1       0.81400    0.40343    0.75556   1.00
C2       0.75101    0.39561    0.75118   1.00
C5       0.78355    0.52121    0.84000   1.00
H2       0.79281    0.55162    0.84689   1.00
H2       0.80682    0.50734    0.82192   1.00
C5       0.77940    0.49871    0.87815   1.00
H2       0.76909    0.46863    0.87133   1.00
H2       0.75636    0.51302    0.89610   1.00
C5       0.81838    0.49738    0.90044   1.00
H2       0.82899    0.52732    0.90710   1.00
H2       0.84104    0.48189    0.88309   1.00
C5       0.81311    0.47555    0.93935   1.00
C5       0.83599    0.48895    0.71968   1.00
C5       0.66183    0.38930    0.77709   1.00
H2       0.81594    0.50912    0.70405   1.00
H2       0.84129    0.46288    0.70091   1.00
H2       0.65497    0.41700    0.79277   1.00
H2       0.68017    0.37105    0.79700   1.00
H2       0.62615    0.30970    0.79424   1.00
H2       0.86946    0.55753    0.68379   1.00
H2       0.88937    0.51237    0.66435   1.00
C2       0.75172    0.60395    0.75205   1.00
C3       0.75120    0.58403    0.71599   1.00
O2       0.76088    0.60326    0.68198   1.00
C3       0.74979    0.58174    0.78681   1.00
H1       0.74912    0.59615    0.81485   1.00
C3a      0.74981    0.54287    0.71545   1.00
H1       0.75168    0.52798    0.68769   1.00
C3b      0.74968    0.54078    0.78619   1.00
C4       0.74977    0.52100    0.75035   1.00
O3       0.82081    0.47833    0.75645   1.00
C5       0.72686    0.61280    0.66084   1.00
H2       0.70987    0.58609    0.65310   1.00
C5       0.73998    0.63326    0.62358   1.00
H2       0.70771    0.63274    0.67797   1.00
H2       0.74964    0.61068    0.60230   1.00
H2       0.76626    0.65093    0.63091   1.00
C5       0.70799    0.65918    0.60562   1.00
H2       0.68097    0.64176    0.60137   1.00
C5       0.72111    0.67547    0.56587   1.00
H2       0.70149    0.68493    0.62459   1.00
C5       0.87464    0.50983    0.72667   1.00
H2       0.89668    0.48785    0.73604   1.00
H2       0.87072    0.53048    0.75148   1.00
C5       0.88865    0.53200    0.69020   1.00
C5       0.93019    0.54775    0.69687   1.00
H2       0.56307    0.30714    0.76659   1.00
C5       0.55022    0.31088    0.82937   1.00
H2       0.55020    0.35677    0.78449   1.00
C5       0.85340    0.46663    0.95710   1.00
H2       0.79566    0.49449    0.96040   1.00
H2       0.79682    0.44707    0.93396   1.00
C5       0.68620    0.69503    0.54544   1.00
H2       0.74523    0.69789    0.57049   1.00
H2       0.73253    0.65063    0.54693   1.00
H2       0.93137    0.56398    0.72587   1.00
H2       0.95170    0.52239    0.69747   1.00
C5       0.94109    0.57583    0.66354   1.00
H2       0.57520    0.29884    0.84773   1.00
H2       0.53408    0.33429    0.84661   1.00
H2       0.52920    0.28626    0.82173   1.00
H2       0.87699    0.48180    0.93922   1.00
H2       0.85441    0.47771    0.98844   1.00
H2       0.85864    0.43379    0.95677   1.00
H2       0.66776    0.71111    0.56797   1.00
H2       0.69733    0.71664    0.52275   1.00
H2       0.66767    0.67181    0.53049   1.00
H2       0.93307    0.60693    0.67217   1.00
H2       0.97379    0.57402    0.65775   1.00
H2       0.92447    0.56734    0.63601   1.00
C5       0.76659    0.62431    0.36782   1.00
H2       0.73872    0.63061    0.35255   1.00
H2       0.75991    0.60078    0.38910   1.00
C5       0.79718    0.61028    0.33806   1.00
C5       0.79159    0.56668    0.32877   1.00
H2       0.82710    0.61485    0.34985   1.00
O3       0.82076    0.74714    0.52000   1.00
C4       0.74965    0.75023    0.47900   1.00
C3c      0.74756    0.71537    0.45757   1.00
H1       0.74579    0.68778    0.47275   1.00
C3d      0.75137    0.78591    0.45865   1.00
C3       0.74827    0.71542    0.41646   1.00
O2       0.74133    0.68070    0.39752   1.00
C3       0.75284    0.78602    0.41773   1.00
H1       0.75556    0.81400    0.40343   1.00
C2       0.75118    0.75101    0.39561   1.00
C5       0.84000    0.78355    0.52121   1.00
H2       0.84689    0.79281    0.55162   1.00
H2       0.82192    0.80682    0.50734   1.00
C5       0.87815    0.77940    0.49871   1.00
H2       0.87133    0.76909    0.46863   1.00
H2       0.89610    0.75636    0.51302   1.00
C5       0.90044    0.81838    0.49738   1.00
H2       0.90710    0.82899    0.52732   1.00
H2       0.88309    0.84104    0.48189   1.00
C5       0.93935    0.81311    0.47555   1.00
C5       0.71968    0.83599    0.48895   1.00
C5       0.77709    0.66183    0.38930   1.00
H2       0.70405    0.81594    0.50912   1.00
H2       0.70091    0.84129    0.46288   1.00
H2       0.79277    0.65497    0.41700   1.00
H2       0.79700    0.68017    0.37105   1.00
H2       0.79424    0.62615    0.30970   1.00
H2       0.68379    0.86946    0.55753   1.00
H2       0.66435    0.88937    0.51237   1.00
C2       0.75205    0.75172    0.60395   1.00
C3       0.71599    0.75120    0.58403   1.00
O2       0.68198    0.76088    0.60326   1.00
C3       0.78681    0.74979    0.58174   1.00
H1       0.81485    0.74912    0.59615   1.00
C3a      0.71545    0.74981    0.54287   1.00
H1       0.68769    0.75168    0.52798   1.00
C3b      0.78619    0.74968    0.54078   1.00
C4       0.75035    0.74977    0.52100   1.00
O3       0.75645    0.82081    0.47833   1.00
C5       0.66084    0.72686    0.61280   1.00
H2       0.65310    0.70987    0.58609   1.00
C5       0.62358    0.73998    0.63326   1.00
H2       0.67797    0.70771    0.63274   1.00
H2       0.60230    0.74964    0.61068   1.00
H2       0.63091    0.76626    0.65093   1.00
C5       0.60562    0.70799    0.65918   1.00
H2       0.60137    0.68097    0.64176   1.00
C5       0.56587    0.72111    0.67547   1.00
H2       0.62459    0.70149    0.68493   1.00
C5       0.72667    0.87464    0.50983   1.00
H2       0.73604    0.89668    0.48785   1.00
H2       0.75148    0.87072    0.53048   1.00
C5       0.69020    0.88865    0.53200   1.00
C5       0.69687    0.93019    0.54775   1.00
H2       0.76659    0.56307    0.30714   1.00
C5       0.82937    0.55022    0.31088   1.00
H2       0.78449    0.55020    0.35677   1.00
C5       0.95710    0.85340    0.46663   1.00
H2       0.96040    0.79566    0.49449   1.00
H2       0.93396    0.79682    0.44707   1.00
C5       0.54544    0.68620    0.69503   1.00
H2       0.57049    0.74523    0.69789   1.00
H2       0.54693    0.73253    0.65063   1.00
H2       0.72587    0.93137    0.56398   1.00
H2       0.69747    0.95170    0.52239   1.00
C5       0.66354    0.94109    0.57583   1.00
H2       0.84773    0.57520    0.29884   1.00
H2       0.84661    0.53408    0.33429   1.00
H2       0.82173    0.52920    0.28626   1.00
H2       0.93922    0.87699    0.48180   1.00
H2       0.98844    0.85441    0.47771   1.00
H2       0.95677    0.85864    0.43379   1.00
H2       0.56797    0.66776    0.71111   1.00
H2       0.52275    0.69733    0.71664   1.00
H2       0.53049    0.66767    0.67181   1.00
H2       0.67217    0.93307    0.60693   1.00
H2       0.65775    0.97379    0.57402   1.00
H2       0.63601    0.92447    0.56734   1.00
C5       0.26659    0.37569    1.13218   1.00
H2       0.23872    0.36939    1.14745   1.00
H2       0.25991    0.39922    1.11090   1.00
C5       0.29718    0.38972    1.16194   1.00
C5       0.29159    0.43332    1.17123   1.00
H2       0.32710    0.38515    1.15015   1.00
O3       0.32076    0.25286    0.98000   1.00
C4       0.24965    0.24977    1.02100   1.00
C3c      0.24756    0.28463    1.04243   1.00
H1       0.24579    0.31222    1.02725   1.00
C3d      0.25137    0.21409    1.04135   1.00
C3       0.24827    0.28458    1.08354   1.00
O2       0.24133    0.31930    1.10248   1.00
C3       0.25284    0.21398    1.08227   1.00
H1       0.25556    0.18600    1.09657   1.00
C2       0.25118    0.24899    1.10439   1.00
C5       0.34000    0.21645    0.97879   1.00
H2       0.34689    0.20719    0.94838   1.00
H2       0.32192    0.19318    0.99266   1.00
C5       0.37815    0.22060    1.00129   1.00
H2       0.37133    0.23091    1.03137   1.00
H2       0.39610    0.24364    0.98698   1.00
C5       0.40044    0.18162    1.00262   1.00
H2       0.40710    0.17101    0.97268   1.00
H2       0.38309    0.15896    1.01811   1.00
C5       0.43935    0.18689    1.02445   1.00
C5       0.21968    0.16401    1.01105   1.00
C5       0.27709    0.33817    1.11070   1.00
H2       0.20405    0.18406    0.99088   1.00
H2       0.20091    0.15871    1.03712   1.00
H2       0.29277    0.34503    1.08300   1.00
H2       0.29700    0.31983    1.12895   1.00
H2       0.29424    0.37385    1.19030   1.00
H2       0.18379    0.13054    0.94247   1.00
H2       0.16435    0.11063    0.98763   1.00
C2       0.25205    0.24828    0.89605   1.00
C3       0.21599    0.24880    0.91597   1.00
O2       0.18198    0.23912    0.89674   1.00
C3       0.28681    0.25021    0.91826   1.00
H1       0.31485    0.25088    0.90385   1.00
C3a      0.21545    0.25019    0.95713   1.00
H1       0.18769    0.24832    0.97202   1.00
C3b      0.28619    0.25032    0.95922   1.00
C4       0.25035    0.25023    0.97900   1.00
O3       0.25645    0.17919    1.02167   1.00
C5       0.16084    0.27314    0.88720   1.00
H2       0.15310    0.29013    0.91391   1.00
C5       0.12358    0.26002    0.86674   1.00
H2       0.17797    0.29229    0.86726   1.00
H2       0.10230    0.25036    0.88932   1.00
H2       0.13091    0.23374    0.84907   1.00
C5       0.10562    0.29201    0.84082   1.00
H2       0.10137    0.31903    0.85824   1.00
C5       0.06587    0.27889    0.82453   1.00
H2       0.12459    0.29851    0.81507   1.00
C5       0.22667    0.12536    0.99017   1.00
H2       0.23604    0.10332    1.01215   1.00
H2       0.25148    0.12928    0.96952   1.00
C5       0.19020    0.11135    0.96800   1.00
C5       0.19687    0.06981    0.95225   1.00
H2       0.26659    0.43693    1.19286   1.00
C5       0.32937    0.44978    1.18912   1.00
H2       0.28449    0.44980    1.14323   1.00
C5       0.45710    0.14660    1.03337   1.00
H2       0.46040    0.20434    1.00551   1.00
H2       0.43396    0.20318    1.05293   1.00
C5       0.04544    0.31380    0.80497   1.00
H2       0.07049    0.25477    0.80211   1.00
H2       0.04693    0.26747    0.84937   1.00
H2       0.22587    0.06863    0.93602   1.00
H2       0.19747    0.04830    0.97761   1.00
C5       0.16354    0.05891    0.92417   1.00
H2       0.34773    0.42480    1.20116   1.00
H2       0.34661    0.46592    1.16571   1.00
H2       0.32173    0.47080    1.21374   1.00
H2       0.43922    0.12301    1.01820   1.00
H2       0.48844    0.14559    1.02229   1.00
H2       0.45677    0.14136    1.06621   1.00
H2       0.06797    0.33224    0.78889   1.00
H2       0.02275    0.30267    0.78336   1.00
H2       0.03049    0.33233    0.82819   1.00
H2       0.17217    0.06693    0.89307   1.00
H2       0.15775    0.02621    0.92598   1.00
H2       0.13601    0.07553    0.93266   1.00
C5       0.37569    0.63218    0.76659   1.00
H2       0.36939    0.64745    0.73872   1.00
H2       0.39922    0.61090    0.75991   1.00
C5       0.38972    0.66194    0.79718   1.00
C5       0.43332    0.67123    0.79159   1.00
H2       0.38515    0.65015    0.82710   1.00
O3       0.25286    0.48000    0.82076   1.00
C4       0.24977    0.52100    0.74965   1.00
C3c      0.28463    0.54243    0.74756   1.00
H1       0.31222    0.52725    0.74579   1.00
C3d      0.21409    0.54135    0.75137   1.00
C3       0.28458    0.58354    0.74827   1.00
O2       0.31930    0.60248    0.74133   1.00
C3       0.21398    0.58227    0.75284   1.00
H1       0.18600    0.59657    0.75556   1.00
C2       0.24899    0.60439    0.75118   1.00
C5       0.21645    0.47879    0.84000   1.00
H2       0.20719    0.44838    0.84689   1.00
H2       0.19318    0.49266    0.82192   1.00
C5       0.22060    0.50129    0.87815   1.00
H2       0.23091    0.53137    0.87133   1.00
H2       0.24364    0.48698    0.89610   1.00
C5       0.18162    0.50262    0.90044   1.00
H2       0.17101    0.47268    0.90710   1.00
H2       0.15896    0.51811    0.88309   1.00
C5       0.18689    0.52445    0.93935   1.00
C5       0.16401    0.51105    0.71968   1.00
C5       0.33817    0.61070    0.77709   1.00
H2       0.18406    0.49088    0.70405   1.00
H2       0.15871    0.53712    0.70091   1.00
H2       0.34503    0.58300    0.79277   1.00
H2       0.31983    0.62895    0.79700   1.00
H2       0.37385    0.69030    0.79424   1.00
H2       0.13054    0.44247    0.68379   1.00
H2       0.11063    0.48763    0.66435   1.00
C2       0.24828    0.39605    0.75205   1.00
C3       0.24880    0.41597    0.71599   1.00
O2       0.23912    0.39674    0.68198   1.00
C3       0.25021    0.41826    0.78681   1.00
H1       0.25088    0.40385    0.81485   1.00
C3a      0.25019    0.45713    0.71545   1.00
H1       0.24832    0.47202    0.68769   1.00
C3b      0.25032    0.45922    0.78619   1.00
C4       0.25023    0.47900    0.75035   1.00
O3       0.17919    0.52167    0.75645   1.00
C5       0.27314    0.38720    0.66084   1.00
H2       0.29013    0.41391    0.65310   1.00
C5       0.26002    0.36674    0.62358   1.00
H2       0.29229    0.36726    0.67797   1.00
H2       0.25036    0.38932    0.60230   1.00
H2       0.23374    0.34907    0.63091   1.00
C5       0.29201    0.34082    0.60562   1.00
H2       0.31903    0.35824    0.60137   1.00
C5       0.27889    0.32453    0.56587   1.00
H2       0.29851    0.31507    0.62459   1.00
C5       0.12536    0.49017    0.72667   1.00
H2       0.10332    0.51215    0.73604   1.00
H2       0.12928    0.46952    0.75148   1.00
C5       0.11135    0.46800    0.69020   1.00
C5       0.06981    0.45225    0.69687   1.00
H2       0.43693    0.69286    0.76659   1.00
C5       0.44978    0.68912    0.82937   1.00
H2       0.44980    0.64323    0.78449   1.00
C5       0.14660    0.53337    0.95710   1.00
H2       0.20434    0.50551    0.96040   1.00
H2       0.20318    0.55293    0.93396   1.00
C5       0.31380    0.30497    0.54544   1.00
H2       0.25477    0.30211    0.57049   1.00
H2       0.26747    0.34937    0.54693   1.00
H2       0.06863    0.43602    0.72587   1.00
H2       0.04830    0.47761    0.69747   1.00
C5       0.05891    0.42417    0.66354   1.00
H2       0.42480    0.70116    0.84773   1.00
H2       0.46592    0.66571    0.84661   1.00
H2       0.47080    0.71374    0.82173   1.00
H2       0.12301    0.51820    0.93922   1.00
H2       0.14559    0.52229    0.98844   1.00
H2       0.14136    0.56621    0.95677   1.00
H2       0.33224    0.28889    0.56797   1.00
H2       0.30267    0.28336    0.52275   1.00
H2       0.33233    0.32819    0.53049   1.00
H2       0.06693    0.39307    0.67217   1.00
H2       0.02621    0.42598    0.65775   1.00
H2       0.07553    0.43266    0.63601   1.00
C5       -0.13218   0.26659    0.62431   1.00
H2       -0.14745   0.23872    0.63061   1.00
H2       -0.11090   0.25991    0.60078   1.00
C5       -0.16194   0.29718    0.61028   1.00
C5       -0.17123   0.29159    0.56668   1.00
H2       -0.15015   0.32710    0.61485   1.00
O3       0.02000    0.32076    0.74714   1.00
C4       -0.02100   0.24965    0.75023   1.00
C3c      -0.04243   0.24756    0.71537   1.00
H1       -0.02725   0.24579    0.68778   1.00
C3d      -0.04135   0.25137    0.78591   1.00
C3       -0.08354   0.24827    0.71542   1.00
O2       -0.10248   0.24133    0.68070   1.00
C3       -0.08227   0.25284    0.78602   1.00
H1       -0.09657   0.25556    0.81400   1.00
C2       -0.10439   0.25118    0.75101   1.00
C5       0.02121    0.34000    0.78355   1.00
H2       0.05162    0.34689    0.79281   1.00
H2       0.00734    0.32192    0.80682   1.00
C5       -0.00129   0.37815    0.77940   1.00
H2       -0.03137   0.37133    0.76909   1.00
H2       0.01302    0.39610    0.75636   1.00
C5       -0.00262   0.40044    0.81838   1.00
H2       0.02732    0.40710    0.82899   1.00
H2       -0.01811   0.38309    0.84104   1.00
C5       -0.02445   0.43935    0.81311   1.00
C5       -0.01105   0.21968    0.83599   1.00
C5       -0.11070   0.27709    0.66183   1.00
H2       0.00912    0.20405    0.81594   1.00
H2       -0.03712   0.20091    0.84129   1.00
H2       -0.08300   0.29277    0.65497   1.00
H2       -0.12895   0.29700    0.68017   1.00
H2       -0.19030   0.29424    0.62615   1.00
H2       0.05753    0.18379    0.86946   1.00
H2       0.01237    0.16435    0.88937   1.00
C2       0.10395    0.25205    0.75172   1.00
C3       0.08403    0.21599    0.75120   1.00
O2       0.10326    0.18198    0.76088   1.00
C3       0.08174    0.28681    0.74979   1.00
H1       0.09615    0.31485    0.74912   1.00
C3a      0.04287    0.21545    0.74981   1.00
H1       0.02798    0.18769    0.75168   1.00
C3b      0.04078    0.28619    0.74968   1.00
C4       0.02100    0.25035    0.74977   1.00
O3       -0.02167   0.25645    0.82081   1.00
C5       0.11280    0.16084    0.72686   1.00
H2       0.08609    0.15310    0.70987   1.00
C5       0.13326    0.12358    0.73998   1.00
H2       0.13274    0.17797    0.70771   1.00
H2       0.11068    0.10230    0.74964   1.00
H2       0.15093    0.13091    0.76626   1.00
C5       0.15918    0.10562    0.70799   1.00
H2       0.14176    0.10137    0.68097   1.00
C5       0.17547    0.06587    0.72111   1.00
H2       0.18493    0.12459    0.70149   1.00
C5       0.00983    0.22667    0.87464   1.00
H2       -0.01215   0.23604    0.89668   1.00
H2       0.03048    0.25148    0.87072   1.00
C5       0.03200    0.19020    0.88865   1.00
C5       0.04775    0.19687    0.93019   1.00
H2       -0.19286   0.26659    0.56307   1.00
C5       -0.18912   0.32937    0.55022   1.00
H2       -0.14323   0.28449    0.55020   1.00
C5       -0.03337   0.45710    0.85340   1.00
H2       -0.00551   0.46040    0.79566   1.00
H2       -0.05293   0.43396    0.79682   1.00
C5       0.19503    0.04544    0.68620   1.00
H2       0.19789    0.07049    0.74523   1.00
H2       0.15063    0.04693    0.73253   1.00
H2       0.06398    0.22587    0.93137   1.00
H2       0.02239    0.19747    0.95170   1.00
C5       0.07583    0.16354    0.94109   1.00
H2       -0.20116   0.34773    0.57520   1.00
H2       -0.16571   0.34661    0.53408   1.00
H2       -0.21374   0.32173    0.52920   1.00
H2       -0.01820   0.43922    0.87699   1.00
H2       -0.02229   0.48844    0.85441   1.00
H2       -0.06621   0.45677    0.85864   1.00
H2       0.21111    0.06797    0.66776   1.00
H2       0.21664    0.02275    0.69733   1.00
H2       0.17181    0.03049    0.66767   1.00
H2       0.10693    0.17217    0.93307   1.00
H2       0.07402    0.15775    0.97379   1.00
H2       0.06734    0.13601    0.92447   1.00
C5       0.63218    0.26659    0.87569   1.00
H2       0.64745    0.23872    0.86939   1.00
H2       0.61090    0.25991    0.89922   1.00
C5       0.66194    0.29718    0.88972   1.00
C5       0.67123    0.29159    0.93332   1.00
H2       0.65015    0.32710    0.88515   1.00
O3       0.48000    0.32076    0.75286   1.00
C4       0.52100    0.24965    0.74977   1.00
C3c      0.54243    0.24756    0.78463   1.00
H1       0.52725    0.24579    0.81222   1.00
C3d      0.54135    0.25137    0.71409   1.00
C3       0.58354    0.24827    0.78458   1.00
O2       0.60248    0.24133    0.81930   1.00
C3       0.58227    0.25284    0.71398   1.00
H1       0.59657    0.25556    0.68600   1.00
C2       0.60439    0.25118    0.74899   1.00
C5       0.47879    0.34000    0.71645   1.00
H2       0.44838    0.34689    0.70719   1.00
H2       0.49266    0.32192    0.69318   1.00
C5       0.50129    0.37815    0.72060   1.00
H2       0.53137    0.37133    0.73091   1.00
H2       0.48698    0.39610    0.74364   1.00
C5       0.50262    0.40044    0.68162   1.00
H2       0.47268    0.40710    0.67101   1.00
H2       0.51811    0.38309    0.65896   1.00
C5       0.52445    0.43935    0.68689   1.00
C5       0.51105    0.21968    0.66401   1.00
C5       0.61070    0.27709    0.83817   1.00
H2       0.49088    0.20405    0.68406   1.00
H2       0.53712    0.20091    0.65871   1.00
H2       0.58300    0.29277    0.84503   1.00
H2       0.62895    0.29700    0.81983   1.00
H2       0.69030    0.29424    0.87385   1.00
H2       0.44247    0.18379    0.63054   1.00
H2       0.48763    0.16435    0.61063   1.00
C2       0.39605    0.25205    0.74828   1.00
C3       0.41597    0.21599    0.74880   1.00
O2       0.39674    0.18198    0.73912   1.00
C3       0.41826    0.28681    0.75021   1.00
H1       0.40385    0.31485    0.75088   1.00
C3a      0.45713    0.21545    0.75019   1.00
H1       0.47202    0.18769    0.74832   1.00
C3b      0.45922    0.28619    0.75032   1.00
C4       0.47900    0.25035    0.75023   1.00
O3       0.52167    0.25645    0.67919   1.00
C5       0.38720    0.16084    0.77314   1.00
H2       0.41391    0.15310    0.79013   1.00
C5       0.36674    0.12358    0.76002   1.00
H2       0.36726    0.17797    0.79229   1.00
H2       0.38932    0.10230    0.75036   1.00
H2       0.34907    0.13091    0.73374   1.00
C5       0.34082    0.10562    0.79201   1.00
H2       0.35824    0.10137    0.81903   1.00
C5       0.32453    0.06587    0.77889   1.00
H2       0.31507    0.12459    0.79851   1.00
C5       0.49017    0.22667    0.62536   1.00
H2       0.51215    0.23604    0.60332   1.00
H2       0.46952    0.25148    0.62928   1.00
C5       0.46800    0.19020    0.61135   1.00
C5       0.45225    0.19687    0.56981   1.00
H2       0.69286    0.26659    0.93693   1.00
C5       0.68912    0.32937    0.94978   1.00
H2       0.64323    0.28449    0.94980   1.00
C5       0.53337    0.45710    0.64660   1.00
H2       0.50551    0.46040    0.70434   1.00
H2       0.55293    0.43396    0.70318   1.00
C5       0.30497    0.04544    0.81380   1.00
H2       0.30211    0.07049    0.75477   1.00
H2       0.34937    0.04693    0.76747   1.00
H2       0.43602    0.22587    0.56863   1.00
H2       0.47761    0.19747    0.54830   1.00
C5       0.42417    0.16354    0.55891   1.00
H2       0.70116    0.34773    0.92480   1.00
H2       0.66571    0.34661    0.96592   1.00
H2       0.71374    0.32173    0.97080   1.00
H2       0.51820    0.43922    0.62301   1.00
H2       0.52229    0.48844    0.64559   1.00
H2       0.56621    0.45677    0.64136   1.00
H2       0.28889    0.06797    0.83224   1.00
H2       0.28336    0.02275    0.80267   1.00
H2       0.32819    0.03049    0.83233   1.00
H2       0.39307    0.17217    0.56693   1.00
H2       0.42598    0.15775    0.52621   1.00
H2       0.43266    0.13601    0.57553   1.00
C5       0.12431    -0.13218   0.76659   1.00
H2       0.13061    -0.14745   0.73872   1.00
H2       0.10078    -0.11090   0.75991   1.00
C5       0.11028    -0.16194   0.79718   1.00
C5       0.06668    -0.17123   0.79159   1.00
H2       0.11485    -0.15015   0.82710   1.00
O3       0.24714    0.02000    0.82076   1.00
C4       0.25023    -0.02100   0.74965   1.00
C3c      0.21537    -0.04243   0.74756   1.00
H1       0.18778    -0.02725   0.74579   1.00
C3d      0.28591    -0.04135   0.75137   1.00
C3       0.21542    -0.08354   0.74827   1.00
O2       0.18070    -0.10248   0.74133   1.00
C3       0.28602    -0.08227   0.75284   1.00
H1       0.31400    -0.09657   0.75556   1.00
C2       0.25101    -0.10439   0.75118   1.00
C5       0.28355    0.02121    0.84000   1.00
H2       0.29281    0.05162    0.84689   1.00
H2       0.30682    0.00734    0.82192   1.00
C5       0.27940    -0.00129   0.87815   1.00
H2       0.26909    -0.03137   0.87133   1.00
H2       0.25636    0.01302    0.89610   1.00
C5       0.31838    -0.00262   0.90044   1.00
H2       0.32899    0.02732    0.90710   1.00
H2       0.34104    -0.01811   0.88309   1.00
C5       0.31311    -0.02445   0.93935   1.00
C5       0.33599    -0.01105   0.71968   1.00
C5       0.16183    -0.11070   0.77709   1.00
H2       0.31594    0.00912    0.70405   1.00
H2       0.34129    -0.03712   0.70091   1.00
H2       0.15497    -0.08300   0.79277   1.00
H2       0.18017    -0.12895   0.79700   1.00
H2       0.12615    -0.19030   0.79424   1.00
H2       0.36946    0.05753    0.68379   1.00
H2       0.38937    0.01237    0.66435   1.00
C2       0.25172    0.10395    0.75205   1.00
C3       0.25120    0.08403    0.71599   1.00
O2       0.26088    0.10326    0.68198   1.00
C3       0.24979    0.08174    0.78681   1.00
H1       0.24912    0.09615    0.81485   1.00
C3a      0.24981    0.04287    0.71545   1.00
H1       0.25168    0.02798    0.68769   1.00
C3b      0.24968    0.04078    0.78619   1.00
C4       0.24977    0.02100    0.75035   1.00
O3       0.32081    -0.02167   0.75645   1.00
C5       0.22686    0.11280    0.66084   1.00
H2       0.20987    0.08609    0.65310   1.00
C5       0.23998    0.13326    0.62358   1.00
H2       0.20771    0.13274    0.67797   1.00
H2       0.24964    0.11068    0.60230   1.00
H2       0.26626    0.15093    0.63091   1.00
C5       0.20799    0.15918    0.60562   1.00
H2       0.18097    0.14176    0.60137   1.00
C5       0.22111    0.17547    0.56587   1.00
H2       0.20149    0.18493    0.62459   1.00
C5       0.37464    0.00983    0.72667   1.00
H2       0.39668    -0.01215   0.73604   1.00
H2       0.37072    0.03048    0.75148   1.00
C5       0.38865    0.03200    0.69020   1.00
C5       0.43019    0.04775    0.69687   1.00
H2       0.06307    -0.19286   0.76659   1.00
C5       0.05022    -0.18912   0.82937   1.00
H2       0.05020    -0.14323   0.78449   1.00
C5       0.35340    -0.03337   0.95710   1.00
H2       0.29566    -0.00551   0.96040   1.00
H2       0.29682    -0.05293   0.93396   1.00
C5       0.18620    0.19503    0.54544   1.00
H2       0.24523    0.19789    0.57049   1.00
H2       0.23253    0.15063    0.54693   1.00
H2       0.43137    0.06398    0.72587   1.00
H2       0.45170    0.02239    0.69747   1.00
C5       0.44109    0.07583    0.66354   1.00
H2       0.07520    -0.20116   0.84773   1.00
H2       0.03408    -0.16571   0.84661   1.00
H2       0.02920    -0.21374   0.82173   1.00
H2       0.37699    -0.01820   0.93922   1.00
H2       0.35441    -0.02229   0.98844   1.00
H2       0.35864    -0.06621   0.95677   1.00
H2       0.16776    0.21111    0.56797   1.00
H2       0.19733    0.21664    0.52275   1.00
H2       0.16767    0.17181    0.53049   1.00
H2       0.43307    0.10693    0.67217   1.00
H2       0.47379    0.07402    0.65775   1.00
H2       0.42447    0.06734    0.63601   1.00
C5       0.26659    0.12431    0.36782   1.00
H2       0.23872    0.13061    0.35255   1.00
H2       0.25991    0.10078    0.38910   1.00
C5       0.29718    0.11028    0.33806   1.00
C5       0.29159    0.06668    0.32877   1.00
H2       0.32710    0.11485    0.34985   1.00
O3       0.32076    0.24714    0.52000   1.00
C4       0.24965    0.25023    0.47900   1.00
C3c      0.24756    0.21537    0.45757   1.00
H1       0.24579    0.18778    0.47275   1.00
C3d      0.25137    0.28591    0.45865   1.00
C3       0.24827    0.21542    0.41646   1.00
O2       0.24133    0.18070    0.39752   1.00
C3       0.25284    0.28602    0.41773   1.00
H1       0.25556    0.31400    0.40343   1.00
C2       0.25118    0.25101    0.39561   1.00
C5       0.34000    0.28355    0.52121   1.00
H2       0.34689    0.29281    0.55162   1.00
H2       0.32192    0.30682    0.50734   1.00
C5       0.37815    0.27940    0.49871   1.00
H2       0.37133    0.26909    0.46863   1.00
H2       0.39610    0.25636    0.51302   1.00
C5       0.40044    0.31838    0.49738   1.00
H2       0.40710    0.32899    0.52732   1.00
H2       0.38309    0.34104    0.48189   1.00
C5       0.43935    0.31311    0.47555   1.00
C5       0.21968    0.33599    0.48895   1.00
C5       0.27709    0.16183    0.38930   1.00
H2       0.20405    0.31594    0.50912   1.00
H2       0.20091    0.34129    0.46288   1.00
H2       0.29277    0.15497    0.41700   1.00
H2       0.29700    0.18017    0.37105   1.00
H2       0.29424    0.12615    0.30970   1.00
H2       0.18379    0.36946    0.55753   1.00
H2       0.16435    0.38937    0.51237   1.00
C2       0.25205    0.25172    0.60395   1.00
C3       0.21599    0.25120    0.58403   1.00
O2       0.18198    0.26088    0.60326   1.00
C3       0.28681    0.24979    0.58174   1.00
H1       0.31485    0.24912    0.59615   1.00
C3a      0.21545    0.24981    0.54287   1.00
H1       0.18769    0.25168    0.52798   1.00
C3b      0.28619    0.24968    0.54078   1.00
C4       0.25035    0.24977    0.52100   1.00
O3       0.25645    0.32081    0.47833   1.00
C5       0.16084    0.22686    0.61280   1.00
H2       0.15310    0.20987    0.58609   1.00
C5       0.12358    0.23998    0.63326   1.00
H2       0.17797    0.20771    0.63274   1.00
H2       0.10230    0.24964    0.61068   1.00
H2       0.13091    0.26626    0.65093   1.00
C5       0.10562    0.20799    0.65918   1.00
H2       0.10137    0.18097    0.64176   1.00
C5       0.06587    0.22111    0.67547   1.00
H2       0.12459    0.20149    0.68493   1.00
C5       0.22667    0.37464    0.50983   1.00
H2       0.23604    0.39668    0.48785   1.00
H2       0.25148    0.37072    0.53048   1.00
C5       0.19020    0.38865    0.53200   1.00
C5       0.19687    0.43019    0.54775   1.00
H2       0.26659    0.06307    0.30714   1.00
C5       0.32937    0.05022    0.31088   1.00
H2       0.28449    0.05020    0.35677   1.00
C5       0.45710    0.35340    0.46663   1.00
H2       0.46040    0.29566    0.49449   1.00
H2       0.43396    0.29682    0.44707   1.00
C5       0.04544    0.18620    0.69503   1.00
H2       0.07049    0.24523    0.69789   1.00
H2       0.04693    0.23253    0.65063   1.00
H2       0.22587    0.43137    0.56398   1.00
H2       0.19747    0.45170    0.52239   1.00
C5       0.16354    0.44109    0.57583   1.00
H2       0.34773    0.07520    0.29884   1.00
H2       0.34661    0.03408    0.33429   1.00
H2       0.32173    0.02920    0.28626   1.00
H2       0.43922    0.37699    0.48180   1.00
H2       0.48844    0.35441    0.47771   1.00
H2       0.45677    0.35864    0.43379   1.00
H2       0.06797    0.16776    0.71111   1.00
H2       0.02275    0.19733    0.71664   1.00
H2       0.03049    0.16767    0.67181   1.00
H2       0.17217    0.43307    0.60693   1.00
H2       0.15775    0.47379    0.57402   1.00
H2       0.13601    0.42447    0.56734   1.00
C5       0.26659    0.87569    0.63218   1.00
H2       0.23872    0.86939    0.64745   1.00
H2       0.25991    0.89922    0.61090   1.00
C5       0.29718    0.88972    0.66194   1.00
C5       0.29159    0.93332    0.67123   1.00
H2       0.32710    0.88515    0.65015   1.00
O3       0.32076    0.75286    0.48000   1.00
C4       0.24965    0.74977    0.52100   1.00
C3c      0.24756    0.78463    0.54243   1.00
H1       0.24579    0.81222    0.52725   1.00
C3d      0.25137    0.71409    0.54135   1.00
C3       0.24827    0.78458    0.58354   1.00
O2       0.24133    0.81930    0.60248   1.00
C3       0.25284    0.71398    0.58227   1.00
H1       0.25556    0.68600    0.59657   1.00
C2       0.25118    0.74899    0.60439   1.00
C5       0.34000    0.71645    0.47879   1.00
H2       0.34689    0.70719    0.44838   1.00
H2       0.32192    0.69318    0.49266   1.00
C5       0.37815    0.72060    0.50129   1.00
H2       0.37133    0.73091    0.53137   1.00
H2       0.39610    0.74364    0.48698   1.00
C5       0.40044    0.68162    0.50262   1.00
H2       0.40710    0.67101    0.47268   1.00
H2       0.38309    0.65896    0.51811   1.00
C5       0.43935    0.68689    0.52445   1.00
C5       0.21968    0.66401    0.51105   1.00
C5       0.27709    0.83817    0.61070   1.00
H2       0.20405    0.68406    0.49088   1.00
H2       0.20091    0.65871    0.53712   1.00
H2       0.29277    0.84503    0.58300   1.00
H2       0.29700    0.81983    0.62895   1.00
H2       0.29424    0.87385    0.69030   1.00
H2       0.18379    0.63054    0.44247   1.00
H2       0.16435    0.61063    0.48763   1.00
C2       0.25205    0.74828    0.39605   1.00
C3       0.21599    0.74880    0.41597   1.00
O2       0.18198    0.73912    0.39674   1.00
C3       0.28681    0.75021    0.41826   1.00
H1       0.31485    0.75088    0.40385   1.00
C3a      0.21545    0.75019    0.45713   1.00
H1       0.18769    0.74832    0.47202   1.00
C3b      0.28619    0.75032    0.45922   1.00
C4       0.25035    0.75023    0.47900   1.00
O3       0.25645    0.67919    0.52167   1.00
C5       0.16084    0.77314    0.38720   1.00
H2       0.15310    0.79013    0.41391   1.00
C5       0.12358    0.76002    0.36674   1.00
H2       0.17797    0.79229    0.36726   1.00
H2       0.10230    0.75036    0.38932   1.00
H2       0.13091    0.73374    0.34907   1.00
C5       0.10562    0.79201    0.34082   1.00
H2       0.10137    0.81903    0.35824   1.00
C5       0.06587    0.77889    0.32453   1.00
H2       0.12459    0.79851    0.31507   1.00
C5       0.22667    0.62536    0.49017   1.00
H2       0.23604    0.60332    0.51215   1.00
H2       0.25148    0.62928    0.46952   1.00
C5       0.19020    0.61135    0.46800   1.00
C5       0.19687    0.56981    0.45225   1.00
H2       0.26659    0.93693    0.69286   1.00
C5       0.32937    0.94978    0.68912   1.00
H2       0.28449    0.94980    0.64323   1.00
C5       0.45710    0.64660    0.53337   1.00
H2       0.46040    0.70434    0.50551   1.00
H2       0.43396    0.70318    0.55293   1.00
C5       0.04544    0.81380    0.30497   1.00
H2       0.07049    0.75477    0.30211   1.00
H2       0.04693    0.76747    0.34937   1.00
H2       0.22587    0.56863    0.43602   1.00
H2       0.19747    0.54830    0.47761   1.00
C5       0.16354    0.55891    0.42417   1.00
H2       0.34773    0.92480    0.70116   1.00
H2       0.34661    0.96592    0.66571   1.00
H2       0.32173    0.97080    0.71374   1.00
H2       0.43922    0.62301    0.51820   1.00
H2       0.48844    0.64559    0.52229   1.00
H2       0.45677    0.64136    0.56621   1.00
H2       0.06797    0.83224    0.28889   1.00
H2       0.02275    0.80267    0.28336   1.00
H2       0.03049    0.83233    0.32819   1.00
H2       0.17217    0.56693    0.39307   1.00
H2       0.15775    0.52621    0.42598   1.00
H2       0.13601    0.57553    0.43266   1.00
C5       0.37569    1.13218    0.26659   1.00
H2       0.36939    1.14745    0.23872   1.00
H2       0.39922    1.11090    0.25991   1.00
C5       0.38972    1.16194    0.29718   1.00
C5       0.43332    1.17123    0.29159   1.00
H2       0.38515    1.15015    0.32710   1.00
O3       0.25286    0.98000    0.32076   1.00
C4       0.24977    1.02100    0.24965   1.00
C3c      0.28463    1.04243    0.24756   1.00
H1       0.31222    1.02725    0.24579   1.00
C3d      0.21409    1.04135    0.25137   1.00
C3       0.28458    1.08354    0.24827   1.00
O2       0.31930    1.10248    0.24133   1.00
C3       0.21398    1.08227    0.25284   1.00
H1       0.18600    1.09657    0.25556   1.00
C2       0.24899    1.10439    0.25118   1.00
C5       0.21645    0.97879    0.34000   1.00
H2       0.20719    0.94838    0.34689   1.00
H2       0.19318    0.99266    0.32192   1.00
C5       0.22060    1.00129    0.37815   1.00
H2       0.23091    1.03137    0.37133   1.00
H2       0.24364    0.98698    0.39610   1.00
C5       0.18162    1.00262    0.40044   1.00
H2       0.17101    0.97268    0.40710   1.00
H2       0.15896    1.01811    0.38309   1.00
C5       0.18689    1.02445    0.43935   1.00
C5       0.16401    1.01105    0.21968   1.00
C5       0.33817    1.11070    0.27709   1.00
H2       0.18406    0.99088    0.20405   1.00
H2       0.15871    1.03712    0.20091   1.00
H2       0.34503    1.08300    0.29277   1.00
H2       0.31983    1.12895    0.29700   1.00
H2       0.37385    1.19030    0.29424   1.00
H2       0.13054    0.94247    0.18379   1.00
H2       0.11063    0.98763    0.16435   1.00
C2       0.24828    0.89605    0.25205   1.00
C3       0.24880    0.91597    0.21599   1.00
O2       0.23912    0.89674    0.18198   1.00
C3       0.25021    0.91826    0.28681   1.00
H1       0.25088    0.90385    0.31485   1.00
C3a      0.25019    0.95713    0.21545   1.00
H1       0.24832    0.97202    0.18769   1.00
C3b      0.25032    0.95922    0.28619   1.00
C4       0.25023    0.97900    0.25035   1.00
O3       0.17919    1.02167    0.25645   1.00
C5       0.27314    0.88720    0.16084   1.00
H2       0.29013    0.91391    0.15310   1.00
C5       0.26002    0.86674    0.12358   1.00
H2       0.29229    0.86726    0.17797   1.00
H2       0.25036    0.88932    0.10230   1.00
H2       0.23374    0.84907    0.13091   1.00
C5       0.29201    0.84082    0.10562   1.00
H2       0.31903    0.85824    0.10137   1.00
C5       0.27889    0.82453    0.06587   1.00
H2       0.29851    0.81507    0.12459   1.00
C5       0.12536    0.99017    0.22667   1.00
H2       0.10332    1.01215    0.23604   1.00
H2       0.12928    0.96952    0.25148   1.00
C5       0.11135    0.96800    0.19020   1.00
C5       0.06981    0.95225    0.19687   1.00
H2       0.43693    1.19286    0.26659   1.00
C5       0.44978    1.18912    0.32937   1.00
H2       0.44980    1.14323    0.28449   1.00
C5       0.14660    1.03337    0.45710   1.00
H2       0.20434    1.00551    0.46040   1.00
H2       0.20318    1.05293    0.43396   1.00
C5       0.31380    0.80497    0.04544   1.00
H2       0.25477    0.80211    0.07049   1.00
H2       0.26747    0.84937    0.04693   1.00
H2       0.06863    0.93602    0.22587   1.00
H2       0.04830    0.97761    0.19747   1.00
C5       0.05891    0.92417    0.16354   1.00
H2       0.42480    1.20116    0.34773   1.00
H2       0.46592    1.16571    0.34661   1.00
H2       0.47080    1.21374    0.32173   1.00
H2       0.12301    1.01820    0.43922   1.00
H2       0.14559    1.02229    0.48844   1.00
H2       0.14136    1.06621    0.45677   1.00
H2       0.33224    0.78889    0.06797   1.00
H2       0.30267    0.78336    0.02275   1.00
H2       0.33233    0.82819    0.03049   1.00
H2       0.06693    0.89307    0.17217   1.00
H2       0.02621    0.92598    0.15775   1.00
H2       0.07553    0.93266    0.13601   1.00
C5       -0.13218   0.76659    0.12431   1.00
H2       -0.14745   0.73872    0.13061   1.00
H2       -0.11090   0.75991    0.10078   1.00
C5       -0.16194   0.79718    0.11028   1.00
C5       -0.17123   0.79159    0.06668   1.00
H2       -0.15015   0.82710    0.11485   1.00
O3       0.02000    0.82076    0.24714   1.00
C4       -0.02100   0.74965    0.25023   1.00
C3c      -0.04243   0.74756    0.21537   1.00
H1       -0.02725   0.74579    0.18778   1.00
C3d      -0.04135   0.75137    0.28591   1.00
C3       -0.08354   0.74827    0.21542   1.00
O2       -0.10248   0.74133    0.18070   1.00
C3       -0.08227   0.75284    0.28602   1.00
H1       -0.09657   0.75556    0.31400   1.00
C2       -0.10439   0.75118    0.25101   1.00
C5       0.02121    0.84000    0.28355   1.00
H2       0.05162    0.84689    0.29281   1.00
H2       0.00734    0.82192    0.30682   1.00
C5       -0.00129   0.87815    0.27940   1.00
H2       -0.03137   0.87133    0.26909   1.00
H2       0.01302    0.89610    0.25636   1.00
C5       -0.00262   0.90044    0.31838   1.00
H2       0.02732    0.90710    0.32899   1.00
H2       -0.01811   0.88309    0.34104   1.00
C5       -0.02445   0.93935    0.31311   1.00
C5       -0.01105   0.71968    0.33599   1.00
C5       -0.11070   0.77709    0.16183   1.00
H2       0.00912    0.70405    0.31594   1.00
H2       -0.03712   0.70091    0.34129   1.00
H2       -0.08300   0.79277    0.15497   1.00
H2       -0.12895   0.79700    0.18017   1.00
H2       -0.19030   0.79424    0.12615   1.00
H2       0.05753    0.68379    0.36946   1.00
H2       0.01237    0.66435    0.38937   1.00
C2       0.10395    0.75205    0.25172   1.00
C3       0.08403    0.71599    0.25120   1.00
O2       0.10326    0.68198    0.26088   1.00
C3       0.08174    0.78681    0.24979   1.00
H1       0.09615    0.81485    0.24912   1.00
C3a      0.04287    0.71545    0.24981   1.00
H1       0.02798    0.68769    0.25168   1.00
C3b      0.04078    0.78619    0.24968   1.00
C4       0.02100    0.75035    0.24977   1.00
O3       -0.02167   0.75645    0.32081   1.00
C5       0.11280    0.66084    0.22686   1.00
H2       0.08609    0.65310    0.20987   1.00
C5       0.13326    0.62358    0.23998   1.00
H2       0.13274    0.67797    0.20771   1.00
H2       0.11068    0.60230    0.24964   1.00
H2       0.15093    0.63091    0.26626   1.00
C5       0.15918    0.60562    0.20799   1.00
H2       0.14176    0.60137    0.18097   1.00
C5       0.17547    0.56587    0.22111   1.00
H2       0.18493    0.62459    0.20149   1.00
C5       0.00983    0.72667    0.37464   1.00
H2       -0.01215   0.73604    0.39668   1.00
H2       0.03048    0.75148    0.37072   1.00
C5       0.03200    0.69020    0.38865   1.00
C5       0.04775    0.69687    0.43019   1.00
H2       -0.19286   0.76659    0.06307   1.00
C5       -0.18912   0.82937    0.05022   1.00
H2       -0.14323   0.78449    0.05020   1.00
C5       -0.03337   0.95710    0.35340   1.00
H2       -0.00551   0.96040    0.29566   1.00
H2       -0.05293   0.93396    0.29682   1.00
C5       0.19503    0.54544    0.18620   1.00
H2       0.19789    0.57049    0.24523   1.00
H2       0.15063    0.54693    0.23253   1.00
H2       0.06398    0.72587    0.43137   1.00
H2       0.02239    0.69747    0.45170   1.00
C5       0.07583    0.66354    0.44109   1.00
H2       -0.20116   0.84773    0.07520   1.00
H2       -0.16571   0.84661    0.03408   1.00
H2       -0.21374   0.82173    0.02920   1.00
H2       -0.01820   0.93922    0.37699   1.00
H2       -0.02229   0.98844    0.35441   1.00
H2       -0.06621   0.95677    0.35864   1.00
H2       0.21111    0.56797    0.16776   1.00
H2       0.21664    0.52275    0.19733   1.00
H2       0.17181    0.53049    0.16767   1.00
H2       0.10693    0.67217    0.43307   1.00
H2       0.07402    0.65775    0.47379   1.00
H2       0.06734    0.63601    0.42447   1.00
C5       0.63218    0.76659    0.37569   1.00
H2       0.64745    0.73872    0.36939   1.00
H2       0.61090    0.75991    0.39922   1.00
C5       0.66194    0.79718    0.38972   1.00
C5       0.67123    0.79159    0.43332   1.00
H2       0.65015    0.82710    0.38515   1.00
O3       0.48000    0.82076    0.25286   1.00
C4       0.52100    0.74965    0.24977   1.00
C3c      0.54243    0.74756    0.28463   1.00
H1       0.52725    0.74579    0.31222   1.00
C3d      0.54135    0.75137    0.21409   1.00
C3       0.58354    0.74827    0.28458   1.00
O2       0.60248    0.74133    0.31930   1.00
C3       0.58227    0.75284    0.21398   1.00
H1       0.59657    0.75556    0.18600   1.00
C2       0.60439    0.75118    0.24899   1.00
C5       0.47879    0.84000    0.21645   1.00
H2       0.44838    0.84689    0.20719   1.00
H2       0.49266    0.82192    0.19318   1.00
C5       0.50129    0.87815    0.22060   1.00
H2       0.53137    0.87133    0.23091   1.00
H2       0.48698    0.89610    0.24364   1.00
C5       0.50262    0.90044    0.18162   1.00
H2       0.47268    0.90710    0.17101   1.00
H2       0.51811    0.88309    0.15896   1.00
C5       0.52445    0.93935    0.18689   1.00
C5       0.51105    0.71968    0.16401   1.00
C5       0.61070    0.77709    0.33817   1.00
H2       0.49088    0.70405    0.18406   1.00
H2       0.53712    0.70091    0.15871   1.00
H2       0.58300    0.79277    0.34503   1.00
H2       0.62895    0.79700    0.31983   1.00
H2       0.69030    0.79424    0.37385   1.00
H2       0.44247    0.68379    0.13054   1.00
H2       0.48763    0.66435    0.11063   1.00
C2       0.39605    0.75205    0.24828   1.00
C3       0.41597    0.71599    0.24880   1.00
O2       0.39674    0.68198    0.23912   1.00
C3       0.41826    0.78681    0.25021   1.00
H1       0.40385    0.81485    0.25088   1.00
C3a      0.45713    0.71545    0.25019   1.00
H1       0.47202    0.68769    0.24832   1.00
C3b      0.45922    0.78619    0.25032   1.00
C4       0.47900    0.75035    0.25023   1.00
O3       0.52167    0.75645    0.17919   1.00
C5       0.38720    0.66084    0.27314   1.00
H2       0.41391    0.65310    0.29013   1.00
C5       0.36674    0.62358    0.26002   1.00
H2       0.36726    0.67797    0.29229   1.00
H2       0.38932    0.60230    0.25036   1.00
H2       0.34907    0.63091    0.23374   1.00
C5       0.34082    0.60562    0.29201   1.00
H2       0.35824    0.60137    0.31903   1.00
C5       0.32453    0.56587    0.27889   1.00
H2       0.31507    0.62459    0.29851   1.00
C5       0.49017    0.72667    0.12536   1.00
H2       0.51215    0.73604    0.10332   1.00
H2       0.46952    0.75148    0.12928   1.00
C5       0.46800    0.69020    0.11135   1.00
C5       0.45225    0.69687    0.06981   1.00
H2       0.69286    0.76659    0.43693   1.00
C5       0.68912    0.82937    0.44978   1.00
H2       0.64323    0.78449    0.44980   1.00
C5       0.53337    0.95710    0.14660   1.00
H2       0.50551    0.96040    0.20434   1.00
H2       0.55293    0.93396    0.20318   1.00
C5       0.30497    0.54544    0.31380   1.00
H2       0.30211    0.57049    0.25477   1.00
H2       0.34937    0.54693    0.26747   1.00
H2       0.43602    0.72587    0.06863   1.00
H2       0.47761    0.69747    0.04830   1.00
C5       0.42417    0.66354    0.05891   1.00
H2       0.70116    0.84773    0.42480   1.00
H2       0.66571    0.84661    0.46592   1.00
H2       0.71374    0.82173    0.47080   1.00
H2       0.51820    0.93922    0.12301   1.00
H2       0.52229    0.98844    0.14559   1.00
H2       0.56621    0.95677    0.14136   1.00
H2       0.28889    0.56797    0.33224   1.00
H2       0.28336    0.52275    0.30267   1.00
H2       0.32819    0.53049    0.33233   1.00
H2       0.39307    0.67217    0.06693   1.00
H2       0.42598    0.65775    0.02621   1.00
H2       0.43266    0.63601    0.07553   1.00
C5       0.12431    0.36782    0.26659   1.00
H2       0.13061    0.35255    0.23872   1.00
H2       0.10078    0.38910    0.25991   1.00
C5       0.11028    0.33806    0.29718   1.00
C5       0.06668    0.32877    0.29159   1.00
H2       0.11485    0.34985    0.32710   1.00
O3       0.24714    0.52000    0.32076   1.00
C4       0.25023    0.47900    0.24965   1.00
C3c      0.21537    0.45757    0.24756   1.00
H1       0.18778    0.47275    0.24579   1.00
C3d      0.28591    0.45865    0.25137   1.00
C3       0.21542    0.41646    0.24827   1.00
O2       0.18070    0.39752    0.24133   1.00
C3       0.28602    0.41773    0.25284   1.00
H1       0.31400    0.40343    0.25556   1.00
C2       0.25101    0.39561    0.25118   1.00
C5       0.28355    0.52121    0.34000   1.00
H2       0.29281    0.55162    0.34689   1.00
H2       0.30682    0.50734    0.32192   1.00
C5       0.27940    0.49871    0.37815   1.00
H2       0.26909    0.46863    0.37133   1.00
H2       0.25636    0.51302    0.39610   1.00
C5       0.31838    0.49738    0.40044   1.00
H2       0.32899    0.52732    0.40710   1.00
H2       0.34104    0.48189    0.38309   1.00
C5       0.31311    0.47555    0.43935   1.00
C5       0.33599    0.48895    0.21968   1.00
C5       0.16183    0.38930    0.27709   1.00
H2       0.31594    0.50912    0.20405   1.00
H2       0.34129    0.46288    0.20091   1.00
H2       0.15497    0.41700    0.29277   1.00
H2       0.18017    0.37105    0.29700   1.00
H2       0.12615    0.30970    0.29424   1.00
H2       0.36946    0.55753    0.18379   1.00
H2       0.38937    0.51237    0.16435   1.00
C2       0.25172    0.60395    0.25205   1.00
C3       0.25120    0.58403    0.21599   1.00
O2       0.26088    0.60326    0.18198   1.00
C3       0.24979    0.58174    0.28681   1.00
H1       0.24912    0.59615    0.31485   1.00
C3a      0.24981    0.54287    0.21545   1.00
H1       0.25168    0.52798    0.18769   1.00
C3b      0.24968    0.54078    0.28619   1.00
C4       0.24977    0.52100    0.25035   1.00
O3       0.32081    0.47833    0.25645   1.00
C5       0.22686    0.61280    0.16084   1.00
H2       0.20987    0.58609    0.15310   1.00
C5       0.23998    0.63326    0.12358   1.00
H2       0.20771    0.63274    0.17797   1.00
H2       0.24964    0.61068    0.10230   1.00
H2       0.26626    0.65093    0.13091   1.00
C5       0.20799    0.65918    0.10562   1.00
H2       0.18097    0.64176    0.10137   1.00
C5       0.22111    0.67547    0.06587   1.00
H2       0.20149    0.68493    0.12459   1.00
C5       0.37464    0.50983    0.22667   1.00
H2       0.39668    0.48785    0.23604   1.00
H2       0.37072    0.53048    0.25148   1.00
C5       0.38865    0.53200    0.19020   1.00
C5       0.43019    0.54775    0.19687   1.00
H2       0.06307    0.30714    0.26659   1.00
C5       0.05022    0.31088    0.32937   1.00
H2       0.05020    0.35677    0.28449   1.00
C5       0.35340    0.46663    0.45710   1.00
H2       0.29566    0.49449    0.46040   1.00
H2       0.29682    0.44707    0.43396   1.00
C5       0.18620    0.69503    0.04544   1.00
H2       0.24523    0.69789    0.07049   1.00
H2       0.23253    0.65063    0.04693   1.00
H2       0.43137    0.56398    0.22587   1.00
H2       0.45170    0.52239    0.19747   1.00
C5       0.44109    0.57583    0.16354   1.00
H2       0.07520    0.29884    0.34773   1.00
H2       0.03408    0.33429    0.34661   1.00
H2       0.02920    0.28626    0.32173   1.00
H2       0.37699    0.48180    0.43922   1.00
H2       0.35441    0.47771    0.48844   1.00
H2       0.35864    0.43379    0.45677   1.00
H2       0.16776    0.71111    0.06797   1.00
H2       0.19733    0.71664    0.02275   1.00
H2       0.16767    0.67181    0.03049   1.00
H2       0.43307    0.60693    0.17217   1.00
H2       0.47379    0.57402    0.15775   1.00
H2       0.42447    0.56734    0.13601   1.00
C5       0.26659    0.62431    -0.13218   1.00
H2       0.23872    0.63061    -0.14745   1.00
H2       0.25991    0.60078    -0.11090   1.00
C5       0.29718    0.61028    -0.16194   1.00
C5       0.29159    0.56668    -0.17123   1.00
H2       0.32710    0.61485    -0.15015   1.00
O3       0.32076    0.74714    0.02000   1.00
C4       0.24965    0.75023    -0.02100   1.00
C3c      0.24756    0.71537    -0.04243   1.00
H1       0.24579    0.68778    -0.02725   1.00
C3d      0.25137    0.78591    -0.04135   1.00
C3       0.24827    0.71542    -0.08354   1.00
O2       0.24133    0.68070    -0.10248   1.00
C3       0.25284    0.78602    -0.08227   1.00
H1       0.25556    0.81400    -0.09657   1.00
C2       0.25118    0.75101    -0.10439   1.00
C5       0.34000    0.78355    0.02121   1.00
H2       0.34689    0.79281    0.05162   1.00
H2       0.32192    0.80682    0.00734   1.00
C5       0.37815    0.77940    -0.00129   1.00
H2       0.37133    0.76909    -0.03137   1.00
H2       0.39610    0.75636    0.01302   1.00
C5       0.40044    0.81838    -0.00262   1.00
H2       0.40710    0.82899    0.02732   1.00
H2       0.38309    0.84104    -0.01811   1.00
C5       0.43935    0.81311    -0.02445   1.00
C5       0.21968    0.83599    -0.01105   1.00
C5       0.27709    0.66183    -0.11070   1.00
H2       0.20405    0.81594    0.00912   1.00
H2       0.20091    0.84129    -0.03712   1.00
H2       0.29277    0.65497    -0.08300   1.00
H2       0.29700    0.68017    -0.12895   1.00
H2       0.29424    0.62615    -0.19030   1.00
H2       0.18379    0.86946    0.05753   1.00
H2       0.16435    0.88937    0.01237   1.00
C2       0.25205    0.75172    0.10395   1.00
C3       0.21599    0.75120    0.08403   1.00
O2       0.18198    0.76088    0.10326   1.00
C3       0.28681    0.74979    0.08174   1.00
H1       0.31485    0.74912    0.09615   1.00
C3a      0.21545    0.74981    0.04287   1.00
H1       0.18769    0.75168    0.02798   1.00
C3b      0.28619    0.74968    0.04078   1.00
C4       0.25035    0.74977    0.02100   1.00
O3       0.25645    0.82081    -0.02167   1.00
C5       0.16084    0.72686    0.11280   1.00
H2       0.15310    0.70987    0.08609   1.00
C5       0.12358    0.73998    0.13326   1.00
H2       0.17797    0.70771    0.13274   1.00
H2       0.10230    0.74964    0.11068   1.00
H2       0.13091    0.76626    0.15093   1.00
C5       0.10562    0.70799    0.15918   1.00
H2       0.10137    0.68097    0.14176   1.00
C5       0.06587    0.72111    0.17547   1.00
H2       0.12459    0.70149    0.18493   1.00
C5       0.22667    0.87464    0.00983   1.00
H2       0.23604    0.89668    -0.01215   1.00
H2       0.25148    0.87072    0.03048   1.00
C5       0.19020    0.88865    0.03200   1.00
C5       0.19687    0.93019    0.04775   1.00
H2       0.26659    0.56307    -0.19286   1.00
C5       0.32937    0.55022    -0.18912   1.00
H2       0.28449    0.55020    -0.14323   1.00
C5       0.45710    0.85340    -0.03337   1.00
H2       0.46040    0.79566    -0.00551   1.00
H2       0.43396    0.79682    -0.05293   1.00
C5       0.04544    0.68620    0.19503   1.00
H2       0.07049    0.74523    0.19789   1.00
H2       0.04693    0.73253    0.15063   1.00
H2       0.22587    0.93137    0.06398   1.00
H2       0.19747    0.95170    0.02239   1.00
C5       0.16354    0.94109    0.07583   1.00
H2       0.34773    0.57520    -0.20116   1.00
H2       0.34661    0.53408    -0.16571   1.00
H2       0.32173    0.52920    -0.21374   1.00
H2       0.43922    0.87699    -0.01820   1.00
H2       0.48844    0.85441    -0.02229   1.00
H2       0.45677    0.85864    -0.06621   1.00
H2       0.06797    0.66776    0.21111   1.00
H2       0.02275    0.69733    0.21664   1.00
H2       0.03049    0.66767    0.17181   1.00
H2       0.17217    0.93307    0.10693   1.00
H2       0.15775    0.97379    0.07402   1.00
H2       0.13601    0.92447    0.06734   1.00
C5       0.76659    0.37569    0.63218   1.00
H2       0.73872    0.36939    0.64745   1.00
H2       0.75991    0.39922    0.61090   1.00
C5       0.79718    0.38972    0.66194   1.00
C5       0.79159    0.43332    0.67123   1.00
H2       0.82710    0.38515    0.65015   1.00
O3       0.82076    0.25286    0.48000   1.00
C4       0.74965    0.24977    0.52100   1.00
C3c      0.74756    0.28463    0.54243   1.00
H1       0.74579    0.31222    0.52725   1.00
C3d      0.75137    0.21409    0.54135   1.00
C3       0.74827    0.28458    0.58354   1.00
O2       0.74133    0.31930    0.60248   1.00
C3       0.75284    0.21398    0.58227   1.00
H1       0.75556    0.18600    0.59657   1.00
C2       0.75118    0.24899    0.60439   1.00
C5       0.84000    0.21645    0.47879   1.00
H2       0.84689    0.20719    0.44838   1.00
H2       0.82192    0.19318    0.49266   1.00
C5       0.87815    0.22060    0.50129   1.00
H2       0.87133    0.23091    0.53137   1.00
H2       0.89610    0.24364    0.48698   1.00
C5       0.90044    0.18162    0.50262   1.00
H2       0.90710    0.17101    0.47268   1.00
H2       0.88309    0.15896    0.51811   1.00
C5       0.93935    0.18689    0.52445   1.00
C5       0.71968    0.16401    0.51105   1.00
C5       0.77709    0.33817    0.61070   1.00
H2       0.70405    0.18406    0.49088   1.00
H2       0.70091    0.15871    0.53712   1.00
H2       0.79277    0.34503    0.58300   1.00
H2       0.79700    0.31983    0.62895   1.00
H2       0.79424    0.37385    0.69030   1.00
H2       0.68379    0.13054    0.44247   1.00
H2       0.66435    0.11063    0.48763   1.00
C2       0.75205    0.24828    0.39605   1.00
C3       0.71599    0.24880    0.41597   1.00
O2       0.68198    0.23912    0.39674   1.00
C3       0.78681    0.25021    0.41826   1.00
H1       0.81485    0.25088    0.40385   1.00
C3a      0.71545    0.25019    0.45713   1.00
H1       0.68769    0.24832    0.47202   1.00
C3b      0.78619    0.25032    0.45922   1.00
C4       0.75035    0.25023    0.47900   1.00
O3       0.75645    0.17919    0.52167   1.00
C5       0.66084    0.27314    0.38720   1.00
H2       0.65310    0.29013    0.41391   1.00
C5       0.62358    0.26002    0.36674   1.00
H2       0.67797    0.29229    0.36726   1.00
H2       0.60230    0.25036    0.38932   1.00
H2       0.63091    0.23374    0.34907   1.00
C5       0.60562    0.29201    0.34082   1.00
H2       0.60137    0.31903    0.35824   1.00
C5       0.56587    0.27889    0.32453   1.00
H2       0.62459    0.29851    0.31507   1.00
C5       0.72667    0.12536    0.49017   1.00
H2       0.73604    0.10332    0.51215   1.00
H2       0.75148    0.12928    0.46952   1.00
C5       0.69020    0.11135    0.46800   1.00
C5       0.69687    0.06981    0.45225   1.00
H2       0.76659    0.43693    0.69286   1.00
C5       0.82937    0.44978    0.68912   1.00
H2       0.78449    0.44980    0.64323   1.00
C5       0.95710    0.14660    0.53337   1.00
H2       0.96040    0.20434    0.50551   1.00
H2       0.93396    0.20318    0.55293   1.00
C5       0.54544    0.31380    0.30497   1.00
H2       0.57049    0.25477    0.30211   1.00
H2       0.54693    0.26747    0.34937   1.00
H2       0.72587    0.06863    0.43602   1.00
H2       0.69747    0.04830    0.47761   1.00
C5       0.66354    0.05891    0.42417   1.00
H2       0.84773    0.42480    0.70116   1.00
H2       0.84661    0.46592    0.66571   1.00
H2       0.82173    0.47080    0.71374   1.00
H2       0.93922    0.12301    0.51820   1.00
H2       0.98844    0.14559    0.52229   1.00
H2       0.95677    0.14136    0.56621   1.00
H2       0.56797    0.33224    0.28889   1.00
H2       0.52275    0.30267    0.28336   1.00
H2       0.53049    0.33233    0.32819   1.00
H2       0.67217    0.06693    0.39307   1.00
H2       0.65775    0.02621    0.42598   1.00
H2       0.63601    0.07553    0.43266   1.00
C5       0.87569    0.63218    0.26659   1.00
H2       0.86939    0.64745    0.23872   1.00
H2       0.89922    0.61090    0.25991   1.00
C5       0.88972    0.66194    0.29718   1.00
C5       0.93332    0.67123    0.29159   1.00
H2       0.88515    0.65015    0.32710   1.00
O3       0.75286    0.48000    0.32076   1.00
C4       0.74977    0.52100    0.24965   1.00
C3c      0.78463    0.54243    0.24756   1.00
H1       0.81222    0.52725    0.24579   1.00
C3d      0.71409    0.54135    0.25137   1.00
C3       0.78458    0.58354    0.24827   1.00
O2       0.81930    0.60248    0.24133   1.00
C3       0.71398    0.58227    0.25284   1.00
H1       0.68600    0.59657    0.25556   1.00
C2       0.74899    0.60439    0.25118   1.00
C5       0.71645    0.47879    0.34000   1.00
H2       0.70719    0.44838    0.34689   1.00
H2       0.69318    0.49266    0.32192   1.00
C5       0.72060    0.50129    0.37815   1.00
H2       0.73091    0.53137    0.37133   1.00
H2       0.74364    0.48698    0.39610   1.00
C5       0.68162    0.50262    0.40044   1.00
H2       0.67101    0.47268    0.40710   1.00
H2       0.65896    0.51811    0.38309   1.00
C5       0.68689    0.52445    0.43935   1.00
C5       0.66401    0.51105    0.21968   1.00
C5       0.83817    0.61070    0.27709   1.00
H2       0.68406    0.49088    0.20405   1.00
H2       0.65871    0.53712    0.20091   1.00
H2       0.84503    0.58300    0.29277   1.00
H2       0.81983    0.62895    0.29700   1.00
H2       0.87385    0.69030    0.29424   1.00
H2       0.63054    0.44247    0.18379   1.00
H2       0.61063    0.48763    0.16435   1.00
C2       0.74828    0.39605    0.25205   1.00
C3       0.74880    0.41597    0.21599   1.00
O2       0.73912    0.39674    0.18198   1.00
C3       0.75021    0.41826    0.28681   1.00
H1       0.75088    0.40385    0.31485   1.00
C3a      0.75019    0.45713    0.21545   1.00
H1       0.74832    0.47202    0.18769   1.00
C3b      0.75032    0.45922    0.28619   1.00
C4       0.75023    0.47900    0.25035   1.00
O3       0.67919    0.52167    0.25645   1.00
C5       0.77314    0.38720    0.16084   1.00
H2       0.79013    0.41391    0.15310   1.00
C5       0.76002    0.36674    0.12358   1.00
H2       0.79229    0.36726    0.17797   1.00
H2       0.75036    0.38932    0.10230   1.00
H2       0.73374    0.34907    0.13091   1.00
C5       0.79201    0.34082    0.10562   1.00
H2       0.81903    0.35824    0.10137   1.00
C5       0.77889    0.32453    0.06587   1.00
H2       0.79851    0.31507    0.12459   1.00
C5       0.62536    0.49017    0.22667   1.00
H2       0.60332    0.51215    0.23604   1.00
H2       0.62928    0.46952    0.25148   1.00
C5       0.61135    0.46800    0.19020   1.00
C5       0.56981    0.45225    0.19687   1.00
H2       0.93693    0.69286    0.26659   1.00
C5       0.94978    0.68912    0.32937   1.00
H2       0.94980    0.64323    0.28449   1.00
C5       0.64660    0.53337    0.45710   1.00
H2       0.70434    0.50551    0.46040   1.00
H2       0.70318    0.55293    0.43396   1.00
C5       0.81380    0.30497    0.04544   1.00
H2       0.75477    0.30211    0.07049   1.00
H2       0.76747    0.34937    0.04693   1.00
H2       0.56863    0.43602    0.22587   1.00
H2       0.54830    0.47761    0.19747   1.00
C5       0.55891    0.42417    0.16354   1.00
H2       0.92480    0.70116    0.34773   1.00
H2       0.96592    0.66571    0.34661   1.00
H2       0.97080    0.71374    0.32173   1.00
H2       0.62301    0.51820    0.43922   1.00
H2       0.64559    0.52229    0.48844   1.00
H2       0.64136    0.56621    0.45677   1.00
H2       0.83224    0.28889    0.06797   1.00
H2       0.80267    0.28336    0.02275   1.00
H2       0.83233    0.32819    0.03049   1.00
H2       0.56693    0.39307    0.17217   1.00
H2       0.52621    0.42598    0.15775   1.00
H2       0.57553    0.43266    0.13601   1.00
C5       0.36782    0.26659    0.12431   1.00
H2       0.35255    0.23872    0.13061   1.00
H2       0.38910    0.25991    0.10078   1.00
C5       0.33806    0.29718    0.11028   1.00
C5       0.32877    0.29159    0.06668   1.00
H2       0.34985    0.32710    0.11485   1.00
O3       0.52000    0.32076    0.24714   1.00
C4       0.47900    0.24965    0.25023   1.00
C3c      0.45757    0.24756    0.21537   1.00
H1       0.47275    0.24579    0.18778   1.00
C3d      0.45865    0.25137    0.28591   1.00
C3       0.41646    0.24827    0.21542   1.00
O2       0.39752    0.24133    0.18070   1.00
C3       0.41773    0.25284    0.28602   1.00
H1       0.40343    0.25556    0.31400   1.00
C2       0.39561    0.25118    0.25101   1.00
C5       0.52121    0.34000    0.28355   1.00
H2       0.55162    0.34689    0.29281   1.00
H2       0.50734    0.32192    0.30682   1.00
C5       0.49871    0.37815    0.27940   1.00
H2       0.46863    0.37133    0.26909   1.00
H2       0.51302    0.39610    0.25636   1.00
C5       0.49738    0.40044    0.31838   1.00
H2       0.52732    0.40710    0.32899   1.00
H2       0.48189    0.38309    0.34104   1.00
C5       0.47555    0.43935    0.31311   1.00
C5       0.48895    0.21968    0.33599   1.00
C5       0.38930    0.27709    0.16183   1.00
H2       0.50912    0.20405    0.31594   1.00
H2       0.46288    0.20091    0.34129   1.00
H2       0.41700    0.29277    0.15497   1.00
H2       0.37105    0.29700    0.18017   1.00
H2       0.30970    0.29424    0.12615   1.00
H2       0.55753    0.18379    0.36946   1.00
H2       0.51237    0.16435    0.38937   1.00
C2       0.60395    0.25205    0.25172   1.00
C3       0.58403    0.21599    0.25120   1.00
O2       0.60326    0.18198    0.26088   1.00
C3       0.58174    0.28681    0.24979   1.00
H1       0.59615    0.31485    0.24912   1.00
C3a      0.54287    0.21545    0.24981   1.00
H1       0.52798    0.18769    0.25168   1.00
C3b      0.54078    0.28619    0.24968   1.00
C4       0.52100    0.25035    0.24977   1.00
O3       0.47833    0.25645    0.32081   1.00
C5       0.61280    0.16084    0.22686   1.00
H2       0.58609    0.15310    0.20987   1.00
C5       0.63326    0.12358    0.23998   1.00
H2       0.63274    0.17797    0.20771   1.00
H2       0.61068    0.10230    0.24964   1.00
H2       0.65093    0.13091    0.26626   1.00
C5       0.65918    0.10562    0.20799   1.00
H2       0.64176    0.10137    0.18097   1.00
C5       0.67547    0.06587    0.22111   1.00
H2       0.68493    0.12459    0.20149   1.00
C5       0.50983    0.22667    0.37464   1.00
H2       0.48785    0.23604    0.39668   1.00
H2       0.53048    0.25148    0.37072   1.00
C5       0.53200    0.19020    0.38865   1.00
C5       0.54775    0.19687    0.43019   1.00
H2       0.30714    0.26659    0.06307   1.00
C5       0.31088    0.32937    0.05022   1.00
H2       0.35677    0.28449    0.05020   1.00
C5       0.46663    0.45710    0.35340   1.00
H2       0.49449    0.46040    0.29566   1.00
H2       0.44707    0.43396    0.29682   1.00
C5       0.69503    0.04544    0.18620   1.00
H2       0.69789    0.07049    0.24523   1.00
H2       0.65063    0.04693    0.23253   1.00
H2       0.56398    0.22587    0.43137   1.00
H2       0.52239    0.19747    0.45170   1.00
C5       0.57583    0.16354    0.44109   1.00
H2       0.29884    0.34773    0.07520   1.00
H2       0.33429    0.34661    0.03408   1.00
H2       0.28626    0.32173    0.02920   1.00
H2       0.48180    0.43922    0.37699   1.00
H2       0.47771    0.48844    0.35441   1.00
H2       0.43379    0.45677    0.35864   1.00
H2       0.71111    0.06797    0.16776   1.00
H2       0.71664    0.02275    0.19733   1.00
H2       0.67181    0.03049    0.16767   1.00
H2       0.60693    0.17217    0.43307   1.00
H2       0.57402    0.15775    0.47379   1.00
H2       0.56734    0.13601    0.42447   1.00
C5       1.13218    0.26659    0.37569   1.00
H2       1.14745    0.23872    0.36939   1.00
H2       1.11090    0.25991    0.39922   1.00
C5       1.16194    0.29718    0.38972   1.00
C5       1.17123    0.29159    0.43332   1.00
H2       1.15015    0.32710    0.38515   1.00
O3       0.98000    0.32076    0.25286   1.00
C4       1.02100    0.24965    0.24977   1.00
C3c      1.04243    0.24756    0.28463   1.00
H1       1.02725    0.24579    0.31222   1.00
C3d      1.04135    0.25137    0.21409   1.00
C3       1.08354    0.24827    0.28458   1.00
O2       1.10248    0.24133    0.31930   1.00
C3       1.08227    0.25284    0.21398   1.00
H1       1.09657    0.25556    0.18600   1.00
C2       1.10439    0.25118    0.24899   1.00
C5       0.97879    0.34000    0.21645   1.00
H2       0.94838    0.34689    0.20719   1.00
H2       0.99266    0.32192    0.19318   1.00
C5       1.00129    0.37815    0.22060   1.00
H2       1.03137    0.37133    0.23091   1.00
H2       0.98698    0.39610    0.24364   1.00
C5       1.00262    0.40044    0.18162   1.00
H2       0.97268    0.40710    0.17101   1.00
H2       1.01811    0.38309    0.15896   1.00
C5       1.02445    0.43935    0.18689   1.00
C5       1.01105    0.21968    0.16401   1.00
C5       1.11070    0.27709    0.33817   1.00
H2       0.99088    0.20405    0.18406   1.00
H2       1.03712    0.20091    0.15871   1.00
H2       1.08300    0.29277    0.34503   1.00
H2       1.12895    0.29700    0.31983   1.00
H2       1.19030    0.29424    0.37385   1.00
H2       0.94247    0.18379    0.13054   1.00
H2       0.98763    0.16435    0.11063   1.00
C2       0.89605    0.25205    0.24828   1.00
C3       0.91597    0.21599    0.24880   1.00
O2       0.89674    0.18198    0.23912   1.00
C3       0.91826    0.28681    0.25021   1.00
H1       0.90385    0.31485    0.25088   1.00
C3a      0.95713    0.21545    0.25019   1.00
H1       0.97202    0.18769    0.24832   1.00
C3b      0.95922    0.28619    0.25032   1.00
C4       0.97900    0.25035    0.25023   1.00
O3       1.02167    0.25645    0.17919   1.00
C5       0.88720    0.16084    0.27314   1.00
H2       0.91391    0.15310    0.29013   1.00
C5       0.86674    0.12358    0.26002   1.00
H2       0.86726    0.17797    0.29229   1.00
H2       0.88932    0.10230    0.25036   1.00
H2       0.84907    0.13091    0.23374   1.00
C5       0.84082    0.10562    0.29201   1.00
H2       0.85824    0.10137    0.31903   1.00
C5       0.82453    0.06587    0.27889   1.00
H2       0.81507    0.12459    0.29851   1.00
C5       0.99017    0.22667    0.12536   1.00
H2       1.01215    0.23604    0.10332   1.00
H2       0.96952    0.25148    0.12928   1.00
C5       0.96800    0.19020    0.11135   1.00
C5       0.95225    0.19687    0.06981   1.00
H2       1.19286    0.26659    0.43693   1.00
C5       1.18912    0.32937    0.44978   1.00
H2       1.14323    0.28449    0.44980   1.00
C5       1.03337    0.45710    0.14660   1.00
H2       1.00551    0.46040    0.20434   1.00
H2       1.05293    0.43396    0.20318   1.00
C5       0.80497    0.04544    0.31380   1.00
H2       0.80211    0.07049    0.25477   1.00
H2       0.84937    0.04693    0.26747   1.00
H2       0.93602    0.22587    0.06863   1.00
H2       0.97761    0.19747    0.04830   1.00
C5       0.92417    0.16354    0.05891   1.00
H2       1.20116    0.34773    0.42480   1.00
H2       1.16571    0.34661    0.46592   1.00
H2       1.21374    0.32173    0.47080   1.00
H2       1.01820    0.43922    0.12301   1.00
H2       1.02229    0.48844    0.14559   1.00
H2       1.06621    0.45677    0.14136   1.00
H2       0.78889    0.06797    0.33224   1.00
H2       0.78336    0.02275    0.30267   1.00
H2       0.82819    0.03049    0.33233   1.00
H2       0.89307    0.17217    0.06693   1.00
H2       0.92598    0.15775    0.02621   1.00
H2       0.93266    0.13601    0.07553   1.00
C5       0.62431    -0.13218   0.26659   1.00
H2       0.63061    -0.14745   0.23872   1.00
H2       0.60078    -0.11090   0.25991   1.00
C5       0.61028    -0.16194   0.29718   1.00
C5       0.56668    -0.17123   0.29159   1.00
H2       0.61485    -0.15015   0.32710   1.00
O3       0.74714    0.02000    0.32076   1.00
C4       0.75023    -0.02100   0.24965   1.00
C3c      0.71537    -0.04243   0.24756   1.00
H1       0.68778    -0.02725   0.24579   1.00
C3d      0.78591    -0.04135   0.25137   1.00
C3       0.71542    -0.08354   0.24827   1.00
O2       0.68070    -0.10248   0.24133   1.00
C3       0.78602    -0.08227   0.25284   1.00
H1       0.81400    -0.09657   0.25556   1.00
C2       0.75101    -0.10439   0.25118   1.00
C5       0.78355    0.02121    0.34000   1.00
H2       0.79281    0.05162    0.34689   1.00
H2       0.80682    0.00734    0.32192   1.00
C5       0.77940    -0.00129   0.37815   1.00
H2       0.76909    -0.03137   0.37133   1.00
H2       0.75636    0.01302    0.39610   1.00
C5       0.81838    -0.00262   0.40044   1.00
H2       0.82899    0.02732    0.40710   1.00
H2       0.84104    -0.01811   0.38309   1.00
C5       0.81311    -0.02445   0.43935   1.00
C5       0.83599    -0.01105   0.21968   1.00
C5       0.66183    -0.11070   0.27709   1.00
H2       0.81594    0.00912    0.20405   1.00
H2       0.84129    -0.03712   0.20091   1.00
H2       0.65497    -0.08300   0.29277   1.00
H2       0.68017    -0.12895   0.29700   1.00
H2       0.62615    -0.19030   0.29424   1.00
H2       0.86946    0.05753    0.18379   1.00
H2       0.88937    0.01237    0.16435   1.00
C2       0.75172    0.10395    0.25205   1.00
C3       0.75120    0.08403    0.21599   1.00
O2       0.76088    0.10326    0.18198   1.00
C3       0.74979    0.08174    0.28681   1.00
H1       0.74912    0.09615    0.31485   1.00
C3a      0.74981    0.04287    0.21545   1.00
H1       0.75168    0.02798    0.18769   1.00
C3b      0.74968    0.04078    0.28619   1.00
C4       0.74977    0.02100    0.25035   1.00
O3       0.82081    -0.02167   0.25645   1.00
C5       0.72686    0.11280    0.16084   1.00
H2       0.70987    0.08609    0.15310   1.00
C5       0.73998    0.13326    0.12358   1.00
H2       0.70771    0.13274    0.17797   1.00
H2       0.74964    0.11068    0.10230   1.00
H2       0.76626    0.15093    0.13091   1.00
C5       0.70799    0.15918    0.10562   1.00
H2       0.68097    0.14176    0.10137   1.00
C5       0.72111    0.17547    0.06587   1.00
H2       0.70149    0.18493    0.12459   1.00
C5       0.87464    0.00983    0.22667   1.00
H2       0.89668    -0.01215   0.23604   1.00
H2       0.87072    0.03048    0.25148   1.00
C5       0.88865    0.03200    0.19020   1.00
C5       0.93019    0.04775    0.19687   1.00
H2       0.56307    -0.19286   0.26659   1.00
C5       0.55022    -0.18912   0.32937   1.00
H2       0.55020    -0.14323   0.28449   1.00
C5       0.85340    -0.03337   0.45710   1.00
H2       0.79566    -0.00551   0.46040   1.00
H2       0.79682    -0.05293   0.43396   1.00
C5       0.68620    0.19503    0.04544   1.00
H2       0.74523    0.19789    0.07049   1.00
H2       0.73253    0.15063    0.04693   1.00
H2       0.93137    0.06398    0.22587   1.00
H2       0.95170    0.02239    0.19747   1.00
C5       0.94109    0.07583    0.16354   1.00
H2       0.57520    -0.20116   0.34773   1.00
H2       0.53408    -0.16571   0.34661   1.00
H2       0.52920    -0.21374   0.32173   1.00
H2       0.87699    -0.01820   0.43922   1.00
H2       0.85441    -0.02229   0.48844   1.00
H2       0.85864    -0.06621   0.45677   1.00
H2       0.66776    0.21111    0.06797   1.00
H2       0.69733    0.21664    0.02275   1.00
H2       0.66767    0.17181    0.03049   1.00
H2       0.93307    0.10693    0.17217   1.00
H2       0.97379    0.07402    0.15775   1.00
H2       0.92447    0.06734    0.13601   1.00
C5       0.76659    0.12431    -0.13218   1.00
H2       0.73872    0.13061    -0.14745   1.00
H2       0.75991    0.10078    -0.11090   1.00
C5       0.79718    0.11028    -0.16194   1.00
C5       0.79159    0.06668    -0.17123   1.00
H2       0.82710    0.11485    -0.15015   1.00
O3       0.82076    0.24714    0.02000   1.00
C4       0.74965    0.25023    -0.02100   1.00
C3c      0.74756    0.21537    -0.04243   1.00
H1       0.74579    0.18778    -0.02725   1.00
C3d      0.75137    0.28591    -0.04135   1.00
C3       0.74827    0.21542    -0.08354   1.00
O2       0.74133    0.18070    -0.10248   1.00
C3       0.75284    0.28602    -0.08227   1.00
H1       0.75556    0.31400    -0.09657   1.00
C2       0.75118    0.25101    -0.10439   1.00
C5       0.84000    0.28355    0.02121   1.00
H2       0.84689    0.29281    0.05162   1.00
H2       0.82192    0.30682    0.00734   1.00
C5       0.87815    0.27940    -0.00129   1.00
H2       0.87133    0.26909    -0.03137   1.00
H2       0.89610    0.25636    0.01302   1.00
C5       0.90044    0.31838    -0.00262   1.00
H2       0.90710    0.32899    0.02732   1.00
H2       0.88309    0.34104    -0.01811   1.00
C5       0.93935    0.31311    -0.02445   1.00
C5       0.71968    0.33599    -0.01105   1.00
C5       0.77709    0.16183    -0.11070   1.00
H2       0.70405    0.31594    0.00912   1.00
H2       0.70091    0.34129    -0.03712   1.00
H2       0.79277    0.15497    -0.08300   1.00
H2       0.79700    0.18017    -0.12895   1.00
H2       0.79424    0.12615    -0.19030   1.00
H2       0.68379    0.36946    0.05753   1.00
H2       0.66435    0.38937    0.01237   1.00
C2       0.75205    0.25172    0.10395   1.00
C3       0.71599    0.25120    0.08403   1.00
O2       0.68198    0.26088    0.10326   1.00
C3       0.78681    0.24979    0.08174   1.00
H1       0.81485    0.24912    0.09615   1.00
C3a      0.71545    0.24981    0.04287   1.00
H1       0.68769    0.25168    0.02798   1.00
C3b      0.78619    0.24968    0.04078   1.00
C4       0.75035    0.24977    0.02100   1.00
O3       0.75645    0.32081    -0.02167   1.00
C5       0.66084    0.22686    0.11280   1.00
H2       0.65310    0.20987    0.08609   1.00
C5       0.62358    0.23998    0.13326   1.00
H2       0.67797    0.20771    0.13274   1.00
H2       0.60230    0.24964    0.11068   1.00
H2       0.63091    0.26626    0.15093   1.00
C5       0.60562    0.20799    0.15918   1.00
H2       0.60137    0.18097    0.14176   1.00
C5       0.56587    0.22111    0.17547   1.00
H2       0.62459    0.20149    0.18493   1.00
C5       0.72667    0.37464    0.00983   1.00
H2       0.73604    0.39668    -0.01215   1.00
H2       0.75148    0.37072    0.03048   1.00
C5       0.69020    0.38865    0.03200   1.00
C5       0.69687    0.43019    0.04775   1.00
H2       0.76659    0.06307    -0.19286   1.00
C5       0.82937    0.05022    -0.18912   1.00
H2       0.78449    0.05020    -0.14323   1.00
C5       0.95710    0.35340    -0.03337   1.00
H2       0.96040    0.29566    -0.00551   1.00
H2       0.93396    0.29682    -0.05293   1.00
C5       0.54544    0.18620    0.19503   1.00
H2       0.57049    0.24523    0.19789   1.00
H2       0.54693    0.23253    0.15063   1.00
H2       0.72587    0.43137    0.06398   1.00
H2       0.69747    0.45170    0.02239   1.00
C5       0.66354    0.44109    0.07583   1.00
H2       0.84773    0.07520    -0.20116   1.00
H2       0.84661    0.03408    -0.16571   1.00
H2       0.82173    0.02920    -0.21374   1.00
H2       0.93922    0.37699    -0.01820   1.00
H2       0.98844    0.35441    -0.02229   1.00
H2       0.95677    0.35864    -0.06621   1.00
H2       0.56797    0.16776    0.21111   1.00
H2       0.52275    0.19733    0.21664   1.00
H2       0.53049    0.16767    0.17181   1.00
H2       0.67217    0.43307    0.10693   1.00
H2       0.65775    0.47379    0.07402   1.00
H2       0.63601    0.42447    0.06734   1.00
C5       1.01659    1.12569    1.38218   1.00
H2       0.98872    1.11939    1.39745   1.00
H2       1.00991    1.14922    1.36090   1.00
C5       1.04718    1.13972    1.41194   1.00
C5       1.04159    1.18332    1.42123   1.00
H2       1.07710    1.13515    1.40015   1.00
O3       1.07076    1.00286    1.23000   1.00
C4       0.99965    0.99977    1.27100   1.00
C3c      0.99756    1.03463    1.29243   1.00
H1       0.99579    1.06222    1.27725   1.00
C3d      1.00137    0.96409    1.29135   1.00
C3       0.99827    1.03458    1.33354   1.00
O2       0.99133    1.06930    1.35248   1.00
C3       1.00284    0.96398    1.33227   1.00
H1       1.00556    0.93600    1.34657   1.00
C2       1.00118    0.99899    1.35439   1.00
C5       1.09000    0.96645    1.22879   1.00
H2       1.09689    0.95719    1.19838   1.00
H2       1.07192    0.94318    1.24266   1.00
C5       1.12815    0.97060    1.25129   1.00
H2       1.12133    0.98091    1.28137   1.00
H2       1.14610    0.99364    1.23698   1.00
C5       1.15044    0.93162    1.25262   1.00
H2       1.15710    0.92101    1.22268   1.00
H2       1.13309    0.90896    1.26811   1.00
C5       1.18935    0.93689    1.27445   1.00
C5       0.96968    0.91401    1.26105   1.00
C5       1.02709    1.08817    1.36070   1.00
H2       0.95405    0.93406    1.24088   1.00
H2       0.95091    0.90871    1.28712   1.00
H2       1.04277    1.09503    1.33300   1.00
H2       1.04700    1.06983    1.37895   1.00
H2       1.04424    1.12385    1.44030   1.00
H2       0.93379    0.88054    1.19247   1.00
H2       0.91435    0.86063    1.23763   1.00
C2       1.00205    0.99828    1.14605   1.00
C3       0.96599    0.99880    1.16597   1.00
O2       0.93198    0.98912    1.14674   1.00
C3       1.03681    1.00021    1.16826   1.00
H1       1.06485    1.00088    1.15385   1.00
C3a      0.96545    1.00019    1.20713   1.00
H1       0.93769    0.99832    1.22202   1.00
C3b      1.03619    1.00032    1.20922   1.00
C4       1.00035    1.00023    1.22900   1.00
O3       1.00645    0.92919    1.27167   1.00
C5       0.91084    1.02314    1.13720   1.00
H2       0.90310    1.04013    1.16391   1.00
C5       0.87358    1.01002    1.11674   1.00
H2       0.92797    1.04229    1.11726   1.00
H2       0.85230    1.00036    1.13932   1.00
H2       0.88091    0.98374    1.09907   1.00
C5       0.85562    1.04201    1.09082   1.00
H2       0.85137    1.06903    1.10824   1.00
C5       0.81587    1.02889    1.07453   1.00
H2       0.87459    1.04851    1.06507   1.00
C5       0.97667    0.87536    1.24017   1.00
H2       0.98604    0.85332    1.26215   1.00
H2       1.00148    0.87928    1.21952   1.00
C5       0.94020    0.86135    1.21800   1.00
C5       0.94687    0.81981    1.20225   1.00
H2       1.01659    1.18693    1.44286   1.00
C5       1.07937    1.19978    1.43912   1.00
H2       1.03449    1.19980    1.39323   1.00
C5       1.20710    0.89660    1.28337   1.00
H2       1.21040    0.95434    1.25551   1.00
H2       1.18396    0.95318    1.30293   1.00
C5       0.79544    1.06380    1.05497   1.00
H2       0.82049    1.00477    1.05211   1.00
H2       0.79693    1.01747    1.09937   1.00
H2       0.97587    0.81863    1.18602   1.00
H2       0.94747    0.79830    1.22761   1.00
C5       0.91354    0.80891    1.17417   1.00
H2       1.09773    1.17480    1.45116   1.00
H2       1.09661    1.21592    1.41571   1.00
H2       1.07173    1.22080    1.46374   1.00
H2       1.18922    0.87301    1.26820   1.00
H2       1.23844    0.89559    1.27229   1.00
H2       1.20677    0.89136    1.31621   1.00
H2       0.81797    1.08224    1.03889   1.00
H2       0.77275    1.05267    1.03336   1.00
H2       0.78049    1.08233    1.07819   1.00
H2       0.92217    0.81693    1.14307   1.00
H2       0.90775    0.77621    1.17598   1.00
H2       0.88601    0.82553    1.18266   1.00
C5       1.12569    1.38218    1.01659   1.00
H2       1.11939    1.39745    0.98872   1.00
H2       1.14922    1.36090    1.00991   1.00
C5       1.13972    1.41194    1.04718   1.00
C5       1.18332    1.42123    1.04159   1.00
H2       1.13515    1.40015    1.07710   1.00
O3       1.00286    1.23000    1.07076   1.00
C4       0.99977    1.27100    0.99965   1.00
C3c      1.03463    1.29243    0.99756   1.00
H1       1.06222    1.27725    0.99579   1.00
C3d      0.96409    1.29135    1.00137   1.00
C3       1.03458    1.33354    0.99827   1.00
O2       1.06930    1.35248    0.99133   1.00
C3       0.96398    1.33227    1.00284   1.00
H1       0.93600    1.34657    1.00556   1.00
C2       0.99899    1.35439    1.00118   1.00
C5       0.96645    1.22879    1.09000   1.00
H2       0.95719    1.19838    1.09689   1.00
H2       0.94318    1.24266    1.07192   1.00
C5       0.97060    1.25129    1.12815   1.00
H2       0.98091    1.28137    1.12133   1.00
H2       0.99364    1.23698    1.14610   1.00
C5       0.93162    1.25262    1.15044   1.00
H2       0.92101    1.22268    1.15710   1.00
H2       0.90896    1.26811    1.13309   1.00
C5       0.93689    1.27445    1.18935   1.00
C5       0.91401    1.26105    0.96968   1.00
C5       1.08817    1.36070    1.02709   1.00
H2       0.93406    1.24088    0.95405   1.00
H2       0.90871    1.28712    0.95091   1.00
H2       1.09503    1.33300    1.04277   1.00
H2       1.06983    1.37895    1.04700   1.00
H2       1.12385    1.44030    1.04424   1.00
H2       0.88054    1.19247    0.93379   1.00
H2       0.86063    1.23763    0.91435   1.00
C2       0.99828    1.14605    1.00205   1.00
C3       0.99880    1.16597    0.96599   1.00
O2       0.98912    1.14674    0.93198   1.00
C3       1.00021    1.16826    1.03681   1.00
H1       1.00088    1.15385    1.06485   1.00
C3a      1.00019    1.20713    0.96545   1.00
H1       0.99832    1.22202    0.93769   1.00
C3b      1.00032    1.20922    1.03619   1.00
C4       1.00023    1.22900    1.00035   1.00
O3       0.92919    1.27167    1.00645   1.00
C5       1.02314    1.13720    0.91084   1.00
H2       1.04013    1.16391    0.90310   1.00
C5       1.01002    1.11674    0.87358   1.00
H2       1.04229    1.11726    0.92797   1.00
H2       1.00036    1.13932    0.85230   1.00
H2       0.98374    1.09907    0.88091   1.00
C5       1.04201    1.09082    0.85562   1.00
H2       1.06903    1.10824    0.85137   1.00
C5       1.02889    1.07453    0.81587   1.00
H2       1.04851    1.06507    0.87459   1.00
C5       0.87536    1.24017    0.97667   1.00
H2       0.85332    1.26215    0.98604   1.00
H2       0.87928    1.21952    1.00148   1.00
C5       0.86135    1.21800    0.94020   1.00
C5       0.81981    1.20225    0.94687   1.00
H2       1.18693    1.44286    1.01659   1.00
C5       1.19978    1.43912    1.07937   1.00
H2       1.19980    1.39323    1.03449   1.00
C5       0.89660    1.28337    1.20710   1.00
H2       0.95434    1.25551    1.21040   1.00
H2       0.95318    1.30293    1.18396   1.00
C5       1.06380    1.05497    0.79544   1.00
H2       1.00477    1.05211    0.82049   1.00
H2       1.01747    1.09937    0.79693   1.00
H2       0.81863    1.18602    0.97587   1.00
H2       0.79830    1.22761    0.94747   1.00
C5       0.80891    1.17417    0.91354   1.00
H2       1.17480    1.45116    1.09773   1.00
H2       1.21592    1.41571    1.09661   1.00
H2       1.22080    1.46374    1.07173   1.00
H2       0.87301    1.26820    1.18922   1.00
H2       0.89559    1.27229    1.23844   1.00
H2       0.89136    1.31621    1.20677   1.00
H2       1.08224    1.03889    0.81797   1.00
H2       1.05267    1.03336    0.77275   1.00
H2       1.08233    1.07819    0.78049   1.00
H2       0.81693    1.14307    0.92217   1.00
H2       0.77621    1.17598    0.90775   1.00
H2       0.82553    1.18266    0.88601   1.00
C5       0.61782    1.01659    0.87431   1.00
H2       0.60255    0.98872    0.88061   1.00
H2       0.63910    1.00991    0.85078   1.00
C5       0.58806    1.04718    0.86028   1.00
C5       0.57877    1.04159    0.81668   1.00
H2       0.59985    1.07710    0.86485   1.00
O3       0.77000    1.07076    0.99714   1.00
C4       0.72900    0.99965    1.00023   1.00
C3c      0.70757    0.99756    0.96537   1.00
H1       0.72275    0.99579    0.93778   1.00
C3d      0.70865    1.00137    1.03591   1.00
C3       0.66646    0.99827    0.96542   1.00
O2       0.64752    0.99133    0.93070   1.00
C3       0.66773    1.00284    1.03602   1.00
H1       0.65343    1.00556    1.06400   1.00
C2       0.64561    1.00118    1.00101   1.00
C5       0.77121    1.09000    1.03355   1.00
H2       0.80162    1.09689    1.04281   1.00
H2       0.75734    1.07192    1.05682   1.00
C5       0.74871    1.12815    1.02940   1.00
H2       0.71863    1.12133    1.01909   1.00
H2       0.76302    1.14610    1.00636   1.00
C5       0.74738    1.15044    1.06838   1.00
H2       0.77732    1.15710    1.07899   1.00
H2       0.73189    1.13309    1.09104   1.00
C5       0.72555    1.18935    1.06311   1.00
C5       0.73895    0.96968    1.08599   1.00
C5       0.63930    1.02709    0.91183   1.00
H2       0.75912    0.95405    1.06594   1.00
H2       0.71288    0.95091    1.09129   1.00
H2       0.66700    1.04277    0.90497   1.00
H2       0.62105    1.04700    0.93017   1.00
H2       0.55970    1.04424    0.87615   1.00
H2       0.80753    0.93379    1.11946   1.00
H2       0.76237    0.91435    1.13937   1.00
C2       0.85395    1.00205    1.00172   1.00
C3       0.83403    0.96599    1.00120   1.00
O2       0.85326    0.93198    1.01088   1.00
C3       0.83174    1.03681    0.99979   1.00
H1       0.84615    1.06485    0.99912   1.00
C3a      0.79287    0.96545    0.99981   1.00
H1       0.77798    0.93769    1.00168   1.00
C3b      0.79078    1.03619    0.99968   1.00
C4       0.77100    1.00035    0.99977   1.00
O3       0.72833    1.00645    1.07081   1.00
C5       0.86280    0.91084    0.97686   1.00
H2       0.83609    0.90310    0.95987   1.00
C5       0.88326    0.87358    0.98998   1.00
H2       0.88274    0.92797    0.95771   1.00
H2       0.86068    0.85230    0.99964   1.00
H2       0.90093    0.88091    1.01626   1.00
C5       0.90918    0.85562    0.95799   1.00
H2       0.89176    0.85137    0.93097   1.00
C5       0.92547    0.81587    0.97111   1.00
H2       0.93493    0.87459    0.95149   1.00
C5       0.75983    0.97667    1.12464   1.00
H2       0.73785    0.98604    1.14668   1.00
H2       0.78048    1.00148    1.12072   1.00
C5       0.78200    0.94020    1.13865   1.00
C5       0.79775    0.94687    1.18019   1.00
H2       0.55714    1.01659    0.81307   1.00
C5       0.56088    1.07937    0.80022   1.00
H2       0.60677    1.03449    0.80020   1.00
C5       0.71663    1.20710    1.10340   1.00
H2       0.74449    1.21040    1.04566   1.00
H2       0.69707    1.18396    1.04682   1.00
C5       0.94503    0.79544    0.93620   1.00
H2       0.94789    0.82049    0.99523   1.00
H2       0.90063    0.79693    0.98253   1.00
H2       0.81398    0.97587    1.18137   1.00
H2       0.77239    0.94747    1.20170   1.00
C5       0.82583    0.91354    1.19109   1.00
H2       0.54884    1.09773    0.82520   1.00
H2       0.58429    1.09661    0.78408   1.00
H2       0.53626    1.07173    0.77920   1.00
H2       0.73180    1.18922    1.12699   1.00
H2       0.72771    1.23844    1.10441   1.00
H2       0.68379    1.20677    1.10864   1.00
H2       0.96111    0.81797    0.91776   1.00
H2       0.96664    0.77275    0.94733   1.00
H2       0.92181    0.78049    0.91767   1.00
H2       0.85693    0.92217    1.18307   1.00
H2       0.82402    0.90775    1.22379   1.00
H2       0.81734    0.88601    1.17447   1.00
C5       1.38218    1.01659    1.12569   1.00
H2       1.39745    0.98872    1.11939   1.00
H2       1.36090    1.00991    1.14922   1.00
C5       1.41194    1.04718    1.13972   1.00
C5       1.42123    1.04159    1.18332   1.00
H2       1.40015    1.07710    1.13515   1.00
O3       1.23000    1.07076    1.00286   1.00
C4       1.27100    0.99965    0.99977   1.00
C3c      1.29243    0.99756    1.03463   1.00
H1       1.27725    0.99579    1.06222   1.00
C3d      1.29135    1.00137    0.96409   1.00
C3       1.33354    0.99827    1.03458   1.00
O2       1.35248    0.99133    1.06930   1.00
C3       1.33227    1.00284    0.96398   1.00
H1       1.34657    1.00556    0.93600   1.00
C2       1.35439    1.00118    0.99899   1.00
C5       1.22879    1.09000    0.96645   1.00
H2       1.19838    1.09689    0.95719   1.00
H2       1.24266    1.07192    0.94318   1.00
C5       1.25129    1.12815    0.97060   1.00
H2       1.28137    1.12133    0.98091   1.00
H2       1.23698    1.14610    0.99364   1.00
C5       1.25262    1.15044    0.93162   1.00
H2       1.22268    1.15710    0.92101   1.00
H2       1.26811    1.13309    0.90896   1.00
C5       1.27445    1.18935    0.93689   1.00
C5       1.26105    0.96968    0.91401   1.00
C5       1.36070    1.02709    1.08817   1.00
H2       1.24088    0.95405    0.93406   1.00
H2       1.28712    0.95091    0.90871   1.00
H2       1.33300    1.04277    1.09503   1.00
H2       1.37895    1.04700    1.06983   1.00
H2       1.44030    1.04424    1.12385   1.00
H2       1.19247    0.93379    0.88054   1.00
H2       1.23763    0.91435    0.86063   1.00
C2       1.14605    1.00205    0.99828   1.00
C3       1.16597    0.96599    0.99880   1.00
O2       1.14674    0.93198    0.98912   1.00
C3       1.16826    1.03681    1.00021   1.00
H1       1.15385    1.06485    1.00088   1.00
C3a      1.20713    0.96545    1.00019   1.00
H1       1.22202    0.93769    0.99832   1.00
C3b      1.20922    1.03619    1.00032   1.00
C4       1.22900    1.00035    1.00023   1.00
O3       1.27167    1.00645    0.92919   1.00
C5       1.13720    0.91084    1.02314   1.00
H2       1.16391    0.90310    1.04013   1.00
C5       1.11674    0.87358    1.01002   1.00
H2       1.11726    0.92797    1.04229   1.00
H2       1.13932    0.85230    1.00036   1.00
H2       1.09907    0.88091    0.98374   1.00
C5       1.09082    0.85562    1.04201   1.00
H2       1.10824    0.85137    1.06903   1.00
C5       1.07453    0.81587    1.02889   1.00
H2       1.06507    0.87459    1.04851   1.00
C5       1.24017    0.97667    0.87536   1.00
H2       1.26215    0.98604    0.85332   1.00
H2       1.21952    1.00148    0.87928   1.00
C5       1.21800    0.94020    0.86135   1.00
C5       1.20225    0.94687    0.81981   1.00
H2       1.44286    1.01659    1.18693   1.00
C5       1.43912    1.07937    1.19978   1.00
H2       1.39323    1.03449    1.19980   1.00
C5       1.28337    1.20710    0.89660   1.00
H2       1.25551    1.21040    0.95434   1.00
H2       1.30293    1.18396    0.95318   1.00
C5       1.05497    0.79544    1.06380   1.00
H2       1.05211    0.82049    1.00477   1.00
H2       1.09937    0.79693    1.01747   1.00
H2       1.18602    0.97587    0.81863   1.00
H2       1.22761    0.94747    0.79830   1.00
C5       1.17417    0.91354    0.80891   1.00
H2       1.45116    1.09773    1.17480   1.00
H2       1.41571    1.09661    1.21592   1.00
H2       1.46374    1.07173    1.22080   1.00
H2       1.26820    1.18922    0.87301   1.00
H2       1.27229    1.23844    0.89559   1.00
H2       1.31621    1.20677    0.89136   1.00
H2       1.03889    0.81797    1.08224   1.00
H2       1.03336    0.77275    1.05267   1.00
H2       1.07819    0.78049    1.08233   1.00
H2       1.14307    0.92217    0.81693   1.00
H2       1.17598    0.90775    0.77621   1.00
H2       1.18266    0.88601    0.82553   1.00
C5       0.87431    0.61782    1.01659   1.00
H2       0.88061    0.60255    0.98872   1.00
H2       0.85078    0.63910    1.00991   1.00
C5       0.86028    0.58806    1.04718   1.00
C5       0.81668    0.57877    1.04159   1.00
H2       0.86485    0.59985    1.07710   1.00
O3       0.99714    0.77000    1.07076   1.00
C4       1.00023    0.72900    0.99965   1.00
C3c      0.96537    0.70757    0.99756   1.00
H1       0.93778    0.72275    0.99579   1.00
C3d      1.03591    0.70865    1.00137   1.00
C3       0.96542    0.66646    0.99827   1.00
O2       0.93070    0.64752    0.99133   1.00
C3       1.03602    0.66773    1.00284   1.00
H1       1.06400    0.65343    1.00556   1.00
C2       1.00101    0.64561    1.00118   1.00
C5       1.03355    0.77121    1.09000   1.00
H2       1.04281    0.80162    1.09689   1.00
H2       1.05682    0.75734    1.07192   1.00
C5       1.02940    0.74871    1.12815   1.00
H2       1.01909    0.71863    1.12133   1.00
H2       1.00636    0.76302    1.14610   1.00
C5       1.06838    0.74738    1.15044   1.00
H2       1.07899    0.77732    1.15710   1.00
H2       1.09104    0.73189    1.13309   1.00
C5       1.06311    0.72555    1.18935   1.00
C5       1.08599    0.73895    0.96968   1.00
C5       0.91183    0.63930    1.02709   1.00
H2       1.06594    0.75912    0.95405   1.00
H2       1.09129    0.71288    0.95091   1.00
H2       0.90497    0.66700    1.04277   1.00
H2       0.93017    0.62105    1.04700   1.00
H2       0.87615    0.55970    1.04424   1.00
H2       1.11946    0.80753    0.93379   1.00
H2       1.13937    0.76237    0.91435   1.00
C2       1.00172    0.85395    1.00205   1.00
C3       1.00120    0.83403    0.96599   1.00
O2       1.01088    0.85326    0.93198   1.00
C3       0.99979    0.83174    1.03681   1.00
H1       0.99912    0.84615    1.06485   1.00
C3a      0.99981    0.79287    0.96545   1.00
H1       1.00168    0.77798    0.93769   1.00
C3b      0.99968    0.79078    1.03619   1.00
C4       0.99977    0.77100    1.00035   1.00
O3       1.07081    0.72833    1.00645   1.00
C5       0.97686    0.86280    0.91084   1.00
H2       0.95987    0.83609    0.90310   1.00
C5       0.98998    0.88326    0.87358   1.00
H2       0.95771    0.88274    0.92797   1.00
H2       0.99964    0.86068    0.85230   1.00
H2       1.01626    0.90093    0.88091   1.00
C5       0.95799    0.90918    0.85562   1.00
H2       0.93097    0.89176    0.85137   1.00
C5       0.97111    0.92547    0.81587   1.00
H2       0.95149    0.93493    0.87459   1.00
C5       1.12464    0.75983    0.97667   1.00
H2       1.14668    0.73785    0.98604   1.00
H2       1.12072    0.78048    1.00148   1.00
C5       1.13865    0.78200    0.94020   1.00
C5       1.18019    0.79775    0.94687   1.00
H2       0.81307    0.55714    1.01659   1.00
C5       0.80022    0.56088    1.07937   1.00
H2       0.80020    0.60677    1.03449   1.00
C5       1.10340    0.71663    1.20710   1.00
H2       1.04566    0.74449    1.21040   1.00
H2       1.04682    0.69707    1.18396   1.00
C5       0.93620    0.94503    0.79544   1.00
H2       0.99523    0.94789    0.82049   1.00
H2       0.98253    0.90063    0.79693   1.00
H2       1.18137    0.81398    0.97587   1.00
H2       1.20170    0.77239    0.94747   1.00
C5       1.19109    0.82583    0.91354   1.00
H2       0.82520    0.54884    1.09773   1.00
H2       0.78408    0.58429    1.09661   1.00
H2       0.77920    0.53626    1.07173   1.00
H2       1.12699    0.73180    1.18922   1.00
H2       1.10441    0.72771    1.23844   1.00
H2       1.10864    0.68379    1.20677   1.00
H2       0.91776    0.96111    0.81797   1.00
H2       0.94733    0.96664    0.77275   1.00
H2       0.91767    0.92181    0.78049   1.00
H2       1.18307    0.85693    0.92217   1.00
H2       1.22379    0.82402    0.90775   1.00
H2       1.17447    0.81734    0.88601   1.00
C5       1.01659    0.87431    0.61782   1.00
H2       0.98872    0.88061    0.60255   1.00
H2       1.00991    0.85078    0.63910   1.00
C5       1.04718    0.86028    0.58806   1.00
C5       1.04159    0.81668    0.57877   1.00
H2       1.07710    0.86485    0.59985   1.00
O3       1.07076    0.99714    0.77000   1.00
C4       0.99965    1.00023    0.72900   1.00
C3c      0.99756    0.96537    0.70757   1.00
H1       0.99579    0.93778    0.72275   1.00
C3d      1.00137    1.03591    0.70865   1.00
C3       0.99827    0.96542    0.66646   1.00
O2       0.99133    0.93070    0.64752   1.00
C3       1.00284    1.03602    0.66773   1.00
H1       1.00556    1.06400    0.65343   1.00
C2       1.00118    1.00101    0.64561   1.00
C5       1.09000    1.03355    0.77121   1.00
H2       1.09689    1.04281    0.80162   1.00
H2       1.07192    1.05682    0.75734   1.00
C5       1.12815    1.02940    0.74871   1.00
H2       1.12133    1.01909    0.71863   1.00
H2       1.14610    1.00636    0.76302   1.00
C5       1.15044    1.06838    0.74738   1.00
H2       1.15710    1.07899    0.77732   1.00
H2       1.13309    1.09104    0.73189   1.00
C5       1.18935    1.06311    0.72555   1.00
C5       0.96968    1.08599    0.73895   1.00
C5       1.02709    0.91183    0.63930   1.00
H2       0.95405    1.06594    0.75912   1.00
H2       0.95091    1.09129    0.71288   1.00
H2       1.04277    0.90497    0.66700   1.00
H2       1.04700    0.93017    0.62105   1.00
H2       1.04424    0.87615    0.55970   1.00
H2       0.93379    1.11946    0.80753   1.00
H2       0.91435    1.13937    0.76237   1.00
C2       1.00205    1.00172    0.85395   1.00
C3       0.96599    1.00120    0.83403   1.00
O2       0.93198    1.01088    0.85326   1.00
C3       1.03681    0.99979    0.83174   1.00
H1       1.06485    0.99912    0.84615   1.00
C3a      0.96545    0.99981    0.79287   1.00
H1       0.93769    1.00168    0.77798   1.00
C3b      1.03619    0.99968    0.79078   1.00
C4       1.00035    0.99977    0.77100   1.00
O3       1.00645    1.07081    0.72833   1.00
C5       0.91084    0.97686    0.86280   1.00
H2       0.90310    0.95987    0.83609   1.00
C5       0.87358    0.98998    0.88326   1.00
H2       0.92797    0.95771    0.88274   1.00
H2       0.85230    0.99964    0.86068   1.00
H2       0.88091    1.01626    0.90093   1.00
C5       0.85562    0.95799    0.90918   1.00
H2       0.85137    0.93097    0.89176   1.00
C5       0.81587    0.97111    0.92547   1.00
H2       0.87459    0.95149    0.93493   1.00
C5       0.97667    1.12464    0.75983   1.00
H2       0.98604    1.14668    0.73785   1.00
H2       1.00148    1.12072    0.78048   1.00
C5       0.94020    1.13865    0.78200   1.00
C5       0.94687    1.18019    0.79775   1.00
H2       1.01659    0.81307    0.55714   1.00
C5       1.07937    0.80022    0.56088   1.00
H2       1.03449    0.80020    0.60677   1.00
C5       1.20710    1.10340    0.71663   1.00
H2       1.21040    1.04566    0.74449   1.00
H2       1.18396    1.04682    0.69707   1.00
C5       0.79544    0.93620    0.94503   1.00
H2       0.82049    0.99523    0.94789   1.00
H2       0.79693    0.98253    0.90063   1.00
H2       0.97587    1.18137    0.81398   1.00
H2       0.94747    1.20170    0.77239   1.00
C5       0.91354    1.19109    0.82583   1.00
H2       1.09773    0.82520    0.54884   1.00
H2       1.09661    0.78408    0.58429   1.00
H2       1.07173    0.77920    0.53626   1.00
H2       1.18922    1.12699    0.73180   1.00
H2       1.23844    1.10441    0.72771   1.00
H2       1.20677    1.10864    0.68379   1.00
H2       0.81797    0.91776    0.96111   1.00
H2       0.77275    0.94733    0.96664   1.00
H2       0.78049    0.91767    0.92181   1.00
H2       0.92217    1.18307    0.85693   1.00
H2       0.90775    1.22379    0.82402   1.00
H2       0.88601    1.17447    0.81734   1.00
C5       0.51659    0.62569    1.38218   1.00
H2       0.48872    0.61939    1.39745   1.00
H2       0.50991    0.64922    1.36090   1.00
C5       0.54718    0.63972    1.41194   1.00
C5       0.54159    0.68332    1.42123   1.00
H2       0.57710    0.63515    1.40015   1.00
O3       0.57076    0.50286    1.23000   1.00
C4       0.49965    0.49977    1.27100   1.00
C3c      0.49756    0.53463    1.29243   1.00
H1       0.49579    0.56222    1.27725   1.00
C3d      0.50137    0.46409    1.29135   1.00
C3       0.49827    0.53458    1.33354   1.00
O2       0.49133    0.56930    1.35248   1.00
C3       0.50284    0.46398    1.33227   1.00
H1       0.50556    0.43600    1.34657   1.00
C2       0.50118    0.49899    1.35439   1.00
C5       0.59000    0.46645    1.22879   1.00
H2       0.59689    0.45719    1.19838   1.00
H2       0.57192    0.44318    1.24266   1.00
C5       0.62815    0.47060    1.25129   1.00
H2       0.62133    0.48091    1.28137   1.00
H2       0.64610    0.49364    1.23698   1.00
C5       0.65044    0.43162    1.25262   1.00
H2       0.65710    0.42101    1.22268   1.00
H2       0.63309    0.40896    1.26811   1.00
C5       0.68935    0.43689    1.27445   1.00
C5       0.46968    0.41401    1.26105   1.00
C5       0.52709    0.58817    1.36070   1.00
H2       0.45405    0.43406    1.24088   1.00
H2       0.45091    0.40871    1.28712   1.00
H2       0.54277    0.59503    1.33300   1.00
H2       0.54700    0.56983    1.37895   1.00
H2       0.54424    0.62385    1.44030   1.00
H2       0.43379    0.38054    1.19247   1.00
H2       0.41435    0.36063    1.23763   1.00
C2       0.50205    0.49828    1.14605   1.00
C3       0.46599    0.49880    1.16597   1.00
O2       0.43198    0.48912    1.14674   1.00
C3       0.53681    0.50021    1.16826   1.00
H1       0.56485    0.50088    1.15385   1.00
C3a      0.46545    0.50019    1.20713   1.00
H1       0.43769    0.49832    1.22202   1.00
C3b      0.53619    0.50032    1.20922   1.00
C4       0.50035    0.50023    1.22900   1.00
O3       0.50645    0.42919    1.27167   1.00
C5       0.41084    0.52314    1.13720   1.00
H2       0.40310    0.54013    1.16391   1.00
C5       0.37358    0.51002    1.11674   1.00
H2       0.42797    0.54229    1.11726   1.00
H2       0.35230    0.50036    1.13932   1.00
H2       0.38091    0.48374    1.09907   1.00
C5       0.35562    0.54201    1.09082   1.00
H2       0.35137    0.56903    1.10824   1.00
C5       0.31587    0.52889    1.07453   1.00
H2       0.37459    0.54851    1.06507   1.00
C5       0.47667    0.37536    1.24017   1.00
H2       0.48604    0.35332    1.26215   1.00
H2       0.50148    0.37928    1.21952   1.00
C5       0.44020    0.36135    1.21800   1.00
C5       0.44687    0.31981    1.20225   1.00
H2       0.51659    0.68693    1.44286   1.00
C5       0.57937    0.69978    1.43912   1.00
H2       0.53449    0.69980    1.39323   1.00
C5       0.70710    0.39660    1.28337   1.00
H2       0.71040    0.45434    1.25551   1.00
H2       0.68396    0.45318    1.30293   1.00
C5       0.29544    0.56380    1.05497   1.00
H2       0.32049    0.50477    1.05211   1.00
H2       0.29693    0.51747    1.09937   1.00
H2       0.47587    0.31863    1.18602   1.00
H2       0.44747    0.29830    1.22761   1.00
C5       0.41354    0.30891    1.17417   1.00
H2       0.59773    0.67480    1.45116   1.00
H2       0.59661    0.71592    1.41571   1.00
H2       0.57173    0.72080    1.46374   1.00
H2       0.68922    0.37301    1.26820   1.00
H2       0.73844    0.39559    1.27229   1.00
H2       0.70677    0.39136    1.31621   1.00
H2       0.31797    0.58224    1.03889   1.00
H2       0.27275    0.55267    1.03336   1.00
H2       0.28049    0.58233    1.07819   1.00
H2       0.42217    0.31693    1.14307   1.00
H2       0.40775    0.27621    1.17598   1.00
H2       0.38601    0.32553    1.18266   1.00
C5       0.62569    0.88218    1.01659   1.00
H2       0.61939    0.89745    0.98872   1.00
H2       0.64922    0.86090    1.00991   1.00
C5       0.63972    0.91194    1.04718   1.00
C5       0.68332    0.92123    1.04159   1.00
H2       0.63515    0.90015    1.07710   1.00
O3       0.50286    0.73000    1.07076   1.00
C4       0.49977    0.77100    0.99965   1.00
C3c      0.53463    0.79243    0.99756   1.00
H1       0.56222    0.77725    0.99579   1.00
C3d      0.46409    0.79135    1.00137   1.00
C3       0.53458    0.83354    0.99827   1.00
O2       0.56930    0.85248    0.99133   1.00
C3       0.46398    0.83227    1.00284   1.00
H1       0.43600    0.84657    1.00556   1.00
C2       0.49899    0.85439    1.00118   1.00
C5       0.46645    0.72879    1.09000   1.00
H2       0.45719    0.69838    1.09689   1.00
H2       0.44318    0.74266    1.07192   1.00
C5       0.47060    0.75129    1.12815   1.00
H2       0.48091    0.78137    1.12133   1.00
H2       0.49364    0.73698    1.14610   1.00
C5       0.43162    0.75262    1.15044   1.00
H2       0.42101    0.72268    1.15710   1.00
H2       0.40896    0.76811    1.13309   1.00
C5       0.43689    0.77445    1.18935   1.00
C5       0.41401    0.76105    0.96968   1.00
C5       0.58817    0.86070    1.02709   1.00
H2       0.43406    0.74088    0.95405   1.00
H2       0.40871    0.78712    0.95091   1.00
H2       0.59503    0.83300    1.04277   1.00
H2       0.56983    0.87895    1.04700   1.00
H2       0.62385    0.94030    1.04424   1.00
H2       0.38054    0.69247    0.93379   1.00
H2       0.36063    0.73763    0.91435   1.00
C2       0.49828    0.64605    1.00205   1.00
C3       0.49880    0.66597    0.96599   1.00
O2       0.48912    0.64674    0.93198   1.00
C3       0.50021    0.66826    1.03681   1.00
H1       0.50088    0.65385    1.06485   1.00
C3a      0.50019    0.70713    0.96545   1.00
H1       0.49832    0.72202    0.93769   1.00
C3b      0.50032    0.70922    1.03619   1.00
C4       0.50023    0.72900    1.00035   1.00
O3       0.42919    0.77167    1.00645   1.00
C5       0.52314    0.63720    0.91084   1.00
H2       0.54013    0.66391    0.90310   1.00
C5       0.51002    0.61674    0.87358   1.00
H2       0.54229    0.61726    0.92797   1.00
H2       0.50036    0.63932    0.85230   1.00
H2       0.48374    0.59907    0.88091   1.00
C5       0.54201    0.59082    0.85562   1.00
H2       0.56903    0.60824    0.85137   1.00
C5       0.52889    0.57453    0.81587   1.00
H2       0.54851    0.56507    0.87459   1.00
C5       0.37536    0.74017    0.97667   1.00
H2       0.35332    0.76215    0.98604   1.00
H2       0.37928    0.71952    1.00148   1.00
C5       0.36135    0.71800    0.94020   1.00
C5       0.31981    0.70225    0.94687   1.00
H2       0.68693    0.94286    1.01659   1.00
C5       0.69978    0.93912    1.07937   1.00
H2       0.69980    0.89323    1.03449   1.00
C5       0.39660    0.78337    1.20710   1.00
H2       0.45434    0.75551    1.21040   1.00
H2       0.45318    0.80293    1.18396   1.00
C5       0.56380    0.55497    0.79544   1.00
H2       0.50477    0.55211    0.82049   1.00
H2       0.51747    0.59937    0.79693   1.00
H2       0.31863    0.68602    0.97587   1.00
H2       0.29830    0.72761    0.94747   1.00
C5       0.30891    0.67417    0.91354   1.00
H2       0.67480    0.95116    1.09773   1.00
H2       0.71592    0.91571    1.09661   1.00
H2       0.72080    0.96374    1.07173   1.00
H2       0.37301    0.76820    1.18922   1.00
H2       0.39559    0.77229    1.23844   1.00
H2       0.39136    0.81621    1.20677   1.00
H2       0.58224    0.53889    0.81797   1.00
H2       0.55267    0.53336    0.77275   1.00
H2       0.58233    0.57819    0.78049   1.00
H2       0.31693    0.64307    0.92217   1.00
H2       0.27621    0.67598    0.90775   1.00
H2       0.32553    0.68266    0.88601   1.00
C5       0.11782    0.51659    0.87431   1.00
H2       0.10255    0.48872    0.88061   1.00
H2       0.13910    0.50991    0.85078   1.00
C5       0.08806    0.54718    0.86028   1.00
C5       0.07877    0.54159    0.81668   1.00
H2       0.09985    0.57710    0.86485   1.00
O3       0.27000    0.57076    0.99714   1.00
C4       0.22900    0.49965    1.00023   1.00
C3c      0.20757    0.49756    0.96537   1.00
H1       0.22275    0.49579    0.93778   1.00
C3d      0.20865    0.50137    1.03591   1.00
C3       0.16646    0.49827    0.96542   1.00
O2       0.14752    0.49133    0.93070   1.00
C3       0.16773    0.50284    1.03602   1.00
H1       0.15343    0.50556    1.06400   1.00
C2       0.14561    0.50118    1.00101   1.00
C5       0.27121    0.59000    1.03355   1.00
H2       0.30162    0.59689    1.04281   1.00
H2       0.25734    0.57192    1.05682   1.00
C5       0.24871    0.62815    1.02940   1.00
H2       0.21863    0.62133    1.01909   1.00
H2       0.26302    0.64610    1.00636   1.00
C5       0.24738    0.65044    1.06838   1.00
H2       0.27732    0.65710    1.07899   1.00
H2       0.23189    0.63309    1.09104   1.00
C5       0.22555    0.68935    1.06311   1.00
C5       0.23895    0.46968    1.08599   1.00
C5       0.13930    0.52709    0.91183   1.00
H2       0.25912    0.45405    1.06594   1.00
H2       0.21288    0.45091    1.09129   1.00
H2       0.16700    0.54277    0.90497   1.00
H2       0.12105    0.54700    0.93017   1.00
H2       0.05970    0.54424    0.87615   1.00
H2       0.30753    0.43379    1.11946   1.00
H2       0.26237    0.41435    1.13937   1.00
C2       0.35395    0.50205    1.00172   1.00
C3       0.33403    0.46599    1.00120   1.00
O2       0.35326    0.43198    1.01088   1.00
C3       0.33174    0.53681    0.99979   1.00
H1       0.34615    0.56485    0.99912   1.00
C3a      0.29287    0.46545    0.99981   1.00
H1       0.27798    0.43769    1.00168   1.00
C3b      0.29078    0.53619    0.99968   1.00
C4       0.27100    0.50035    0.99977   1.00
O3       0.22833    0.50645    1.07081   1.00
C5       0.36280    0.41084    0.97686   1.00
H2       0.33609    0.40310    0.95987   1.00
C5       0.38326    0.37358    0.98998   1.00
H2       0.38274    0.42797    0.95771   1.00
H2       0.36068    0.35230    0.99964   1.00
H2       0.40093    0.38091    1.01626   1.00
C5       0.40918    0.35562    0.95799   1.00
H2       0.39176    0.35137    0.93097   1.00
C5       0.42547    0.31587    0.97111   1.00
H2       0.43493    0.37459    0.95149   1.00
C5       0.25983    0.47667    1.12464   1.00
H2       0.23785    0.48604    1.14668   1.00
H2       0.28048    0.50148    1.12072   1.00
C5       0.28200    0.44020    1.13865   1.00
C5       0.29775    0.44687    1.18019   1.00
H2       0.05714    0.51659    0.81307   1.00
C5       0.06088    0.57937    0.80022   1.00
H2       0.10677    0.53449    0.80020   1.00
C5       0.21663    0.70710    1.10340   1.00
H2       0.24449    0.71040    1.04566   1.00
H2       0.19707    0.68396    1.04682   1.00
C5       0.44503    0.29544    0.93620   1.00
H2       0.44789    0.32049    0.99523   1.00
H2       0.40063    0.29693    0.98253   1.00
H2       0.31398    0.47587    1.18137   1.00
H2       0.27239    0.44747    1.20170   1.00
C5       0.32583    0.41354    1.19109   1.00
H2       0.04884    0.59773    0.82520   1.00
H2       0.08429    0.59661    0.78408   1.00
H2       0.03626    0.57173    0.77920   1.00
H2       0.23180    0.68922    1.12699   1.00
H2       0.22771    0.73844    1.10441   1.00
H2       0.18379    0.70677    1.10864   1.00
H2       0.46111    0.31797    0.91776   1.00
H2       0.46664    0.27275    0.94733   1.00
H2       0.42181    0.28049    0.91767   1.00
H2       0.35693    0.42217    1.18307   1.00
H2       0.32402    0.40775    1.22379   1.00
H2       0.31734    0.38601    1.17447   1.00
C5       0.88218    0.51659    1.12569   1.00
H2       0.89745    0.48872    1.11939   1.00
H2       0.86090    0.50991    1.14922   1.00
C5       0.91194    0.54718    1.13972   1.00
C5       0.92123    0.54159    1.18332   1.00
H2       0.90015    0.57710    1.13515   1.00
O3       0.73000    0.57076    1.00286   1.00
C4       0.77100    0.49965    0.99977   1.00
C3c      0.79243    0.49756    1.03463   1.00
H1       0.77725    0.49579    1.06222   1.00
C3d      0.79135    0.50137    0.96409   1.00
C3       0.83354    0.49827    1.03458   1.00
O2       0.85248    0.49133    1.06930   1.00
C3       0.83227    0.50284    0.96398   1.00
H1       0.84657    0.50556    0.93600   1.00
C2       0.85439    0.50118    0.99899   1.00
C5       0.72879    0.59000    0.96645   1.00
H2       0.69838    0.59689    0.95719   1.00
H2       0.74266    0.57192    0.94318   1.00
C5       0.75129    0.62815    0.97060   1.00
H2       0.78137    0.62133    0.98091   1.00
H2       0.73698    0.64610    0.99364   1.00
C5       0.75262    0.65044    0.93162   1.00
H2       0.72268    0.65710    0.92101   1.00
H2       0.76811    0.63309    0.90896   1.00
C5       0.77445    0.68935    0.93689   1.00
C5       0.76105    0.46968    0.91401   1.00
C5       0.86070    0.52709    1.08817   1.00
H2       0.74088    0.45405    0.93406   1.00
H2       0.78712    0.45091    0.90871   1.00
H2       0.83300    0.54277    1.09503   1.00
H2       0.87895    0.54700    1.06983   1.00
H2       0.94030    0.54424    1.12385   1.00
H2       0.69247    0.43379    0.88054   1.00
H2       0.73763    0.41435    0.86063   1.00
C2       0.64605    0.50205    0.99828   1.00
C3       0.66597    0.46599    0.99880   1.00
O2       0.64674    0.43198    0.98912   1.00
C3       0.66826    0.53681    1.00021   1.00
H1       0.65385    0.56485    1.00088   1.00
C3a      0.70713    0.46545    1.00019   1.00
H1       0.72202    0.43769    0.99832   1.00
C3b      0.70922    0.53619    1.00032   1.00
C4       0.72900    0.50035    1.00023   1.00
O3       0.77167    0.50645    0.92919   1.00
C5       0.63720    0.41084    1.02314   1.00
H2       0.66391    0.40310    1.04013   1.00
C5       0.61674    0.37358    1.01002   1.00
H2       0.61726    0.42797    1.04229   1.00
H2       0.63932    0.35230    1.00036   1.00
H2       0.59907    0.38091    0.98374   1.00
C5       0.59082    0.35562    1.04201   1.00
H2       0.60824    0.35137    1.06903   1.00
C5       0.57453    0.31587    1.02889   1.00
H2       0.56507    0.37459    1.04851   1.00
C5       0.74017    0.47667    0.87536   1.00
H2       0.76215    0.48604    0.85332   1.00
H2       0.71952    0.50148    0.87928   1.00
C5       0.71800    0.44020    0.86135   1.00
C5       0.70225    0.44687    0.81981   1.00
H2       0.94286    0.51659    1.18693   1.00
C5       0.93912    0.57937    1.19978   1.00
H2       0.89323    0.53449    1.19980   1.00
C5       0.78337    0.70710    0.89660   1.00
H2       0.75551    0.71040    0.95434   1.00
H2       0.80293    0.68396    0.95318   1.00
C5       0.55497    0.29544    1.06380   1.00
H2       0.55211    0.32049    1.00477   1.00
H2       0.59937    0.29693    1.01747   1.00
H2       0.68602    0.47587    0.81863   1.00
H2       0.72761    0.44747    0.79830   1.00
C5       0.67417    0.41354    0.80891   1.00
H2       0.95116    0.59773    1.17480   1.00
H2       0.91571    0.59661    1.21592   1.00
H2       0.96374    0.57173    1.22080   1.00
H2       0.76820    0.68922    0.87301   1.00
H2       0.77229    0.73844    0.89559   1.00
H2       0.81621    0.70677    0.89136   1.00
H2       0.53889    0.31797    1.08224   1.00
H2       0.53336    0.27275    1.05267   1.00
H2       0.57819    0.28049    1.08233   1.00
H2       0.64307    0.42217    0.81693   1.00
H2       0.67598    0.40775    0.77621   1.00
H2       0.68266    0.38601    0.82553   1.00
C5       0.37431    0.11782    1.01659   1.00
H2       0.38061    0.10255    0.98872   1.00
H2       0.35078    0.13910    1.00991   1.00
C5       0.36028    0.08806    1.04718   1.00
C5       0.31668    0.07877    1.04159   1.00
H2       0.36485    0.09985    1.07710   1.00
O3       0.49714    0.27000    1.07076   1.00
C4       0.50023    0.22900    0.99965   1.00
C3c      0.46537    0.20757    0.99756   1.00
H1       0.43778    0.22275    0.99579   1.00
C3d      0.53591    0.20865    1.00137   1.00
C3       0.46542    0.16646    0.99827   1.00
O2       0.43070    0.14752    0.99133   1.00
C3       0.53602    0.16773    1.00284   1.00
H1       0.56400    0.15343    1.00556   1.00
C2       0.50101    0.14561    1.00118   1.00
C5       0.53355    0.27121    1.09000   1.00
H2       0.54281    0.30162    1.09689   1.00
H2       0.55682    0.25734    1.07192   1.00
C5       0.52940    0.24871    1.12815   1.00
H2       0.51909    0.21863    1.12133   1.00
H2       0.50636    0.26302    1.14610   1.00
C5       0.56838    0.24738    1.15044   1.00
H2       0.57899    0.27732    1.15710   1.00
H2       0.59104    0.23189    1.13309   1.00
C5       0.56311    0.22555    1.18935   1.00
C5       0.58599    0.23895    0.96968   1.00
C5       0.41183    0.13930    1.02709   1.00
H2       0.56594    0.25912    0.95405   1.00
H2       0.59129    0.21288    0.95091   1.00
H2       0.40497    0.16700    1.04277   1.00
H2       0.43017    0.12105    1.04700   1.00
H2       0.37615    0.05970    1.04424   1.00
H2       0.61946    0.30753    0.93379   1.00
H2       0.63937    0.26237    0.91435   1.00
C2       0.50172    0.35395    1.00205   1.00
C3       0.50120    0.33403    0.96599   1.00
O2       0.51088    0.35326    0.93198   1.00
C3       0.49979    0.33174    1.03681   1.00
H1       0.49912    0.34615    1.06485   1.00
C3a      0.49981    0.29287    0.96545   1.00
H1       0.50168    0.27798    0.93769   1.00
C3b      0.49968    0.29078    1.03619   1.00
C4       0.49977    0.27100    1.00035   1.00
O3       0.57081    0.22833    1.00645   1.00
C5       0.47686    0.36280    0.91084   1.00
H2       0.45987    0.33609    0.90310   1.00
C5       0.48998    0.38326    0.87358   1.00
H2       0.45771    0.38274    0.92797   1.00
H2       0.49964    0.36068    0.85230   1.00
H2       0.51626    0.40093    0.88091   1.00
C5       0.45799    0.40918    0.85562   1.00
H2       0.43097    0.39176    0.85137   1.00
C5       0.47111    0.42547    0.81587   1.00
H2       0.45149    0.43493    0.87459   1.00
C5       0.62464    0.25983    0.97667   1.00
H2       0.64668    0.23785    0.98604   1.00
H2       0.62072    0.28048    1.00148   1.00
C5       0.63865    0.28200    0.94020   1.00
C5       0.68019    0.29775    0.94687   1.00
H2       0.31307    0.05714    1.01659   1.00
C5       0.30022    0.06088    1.07937   1.00
H2       0.30020    0.10677    1.03449   1.00
C5       0.60340    0.21663    1.20710   1.00
H2       0.54566    0.24449    1.21040   1.00
H2       0.54682    0.19707    1.18396   1.00
C5       0.43620    0.44503    0.79544   1.00
H2       0.49523    0.44789    0.82049   1.00
H2       0.48253    0.40063    0.79693   1.00
H2       0.68137    0.31398    0.97587   1.00
H2       0.70170    0.27239    0.94747   1.00
C5       0.69109    0.32583    0.91354   1.00
H2       0.32520    0.04884    1.09773   1.00
H2       0.28408    0.08429    1.09661   1.00
H2       0.27920    0.03626    1.07173   1.00
H2       0.62699    0.23180    1.18922   1.00
H2       0.60441    0.22771    1.23844   1.00
H2       0.60864    0.18379    1.20677   1.00
H2       0.41776    0.46111    0.81797   1.00
H2       0.44733    0.46664    0.77275   1.00
H2       0.41767    0.42181    0.78049   1.00
H2       0.68307    0.35693    0.92217   1.00
H2       0.72379    0.32402    0.90775   1.00
H2       0.67447    0.31734    0.88601   1.00
C5       0.51659    0.37431    0.61782   1.00
H2       0.48872    0.38061    0.60255   1.00
H2       0.50991    0.35078    0.63910   1.00
C5       0.54718    0.36028    0.58806   1.00
C5       0.54159    0.31668    0.57877   1.00
H2       0.57710    0.36485    0.59985   1.00
O3       0.57076    0.49714    0.77000   1.00
C4       0.49965    0.50023    0.72900   1.00
C3c      0.49756    0.46537    0.70757   1.00
H1       0.49579    0.43778    0.72275   1.00
C3d      0.50137    0.53591    0.70865   1.00
C3       0.49827    0.46542    0.66646   1.00
O2       0.49133    0.43070    0.64752   1.00
C3       0.50284    0.53602    0.66773   1.00
H1       0.50556    0.56400    0.65343   1.00
C2       0.50118    0.50101    0.64561   1.00
C5       0.59000    0.53355    0.77121   1.00
H2       0.59689    0.54281    0.80162   1.00
H2       0.57192    0.55682    0.75734   1.00
C5       0.62815    0.52940    0.74871   1.00
H2       0.62133    0.51909    0.71863   1.00
H2       0.64610    0.50636    0.76302   1.00
C5       0.65044    0.56838    0.74738   1.00
H2       0.65710    0.57899    0.77732   1.00
H2       0.63309    0.59104    0.73189   1.00
C5       0.68935    0.56311    0.72555   1.00
C5       0.46968    0.58599    0.73895   1.00
C5       0.52709    0.41183    0.63930   1.00
H2       0.45405    0.56594    0.75912   1.00
H2       0.45091    0.59129    0.71288   1.00
H2       0.54277    0.40497    0.66700   1.00
H2       0.54700    0.43017    0.62105   1.00
H2       0.54424    0.37615    0.55970   1.00
H2       0.43379    0.61946    0.80753   1.00
H2       0.41435    0.63937    0.76237   1.00
C2       0.50205    0.50172    0.85395   1.00
C3       0.46599    0.50120    0.83403   1.00
O2       0.43198    0.51088    0.85326   1.00
C3       0.53681    0.49979    0.83174   1.00
H1       0.56485    0.49912    0.84615   1.00
C3a      0.46545    0.49981    0.79287   1.00
H1       0.43769    0.50168    0.77798   1.00
C3b      0.53619    0.49968    0.79078   1.00
C4       0.50035    0.49977    0.77100   1.00
O3       0.50645    0.57081    0.72833   1.00
C5       0.41084    0.47686    0.86280   1.00
H2       0.40310    0.45987    0.83609   1.00
C5       0.37358    0.48998    0.88326   1.00
H2       0.42797    0.45771    0.88274   1.00
H2       0.35230    0.49964    0.86068   1.00
H2       0.38091    0.51626    0.90093   1.00
C5       0.35562    0.45799    0.90918   1.00
H2       0.35137    0.43097    0.89176   1.00
C5       0.31587    0.47111    0.92547   1.00
H2       0.37459    0.45149    0.93493   1.00
C5       0.47667    0.62464    0.75983   1.00
H2       0.48604    0.64668    0.73785   1.00
H2       0.50148    0.62072    0.78048   1.00
C5       0.44020    0.63865    0.78200   1.00
C5       0.44687    0.68019    0.79775   1.00
H2       0.51659    0.31307    0.55714   1.00
C5       0.57937    0.30022    0.56088   1.00
H2       0.53449    0.30020    0.60677   1.00
C5       0.70710    0.60340    0.71663   1.00
H2       0.71040    0.54566    0.74449   1.00
H2       0.68396    0.54682    0.69707   1.00
C5       0.29544    0.43620    0.94503   1.00
H2       0.32049    0.49523    0.94789   1.00
H2       0.29693    0.48253    0.90063   1.00
H2       0.47587    0.68137    0.81398   1.00
H2       0.44747    0.70170    0.77239   1.00
C5       0.41354    0.69109    0.82583   1.00
H2       0.59773    0.32520    0.54884   1.00
H2       0.59661    0.28408    0.58429   1.00
H2       0.57173    0.27920    0.53626   1.00
H2       0.68922    0.62699    0.73180   1.00
H2       0.73844    0.60441    0.72771   1.00
H2       0.70677    0.60864    0.68379   1.00
H2       0.31797    0.41776    0.96111   1.00
H2       0.27275    0.44733    0.96664   1.00
H2       0.28049    0.41767    0.92181   1.00
H2       0.42217    0.68307    0.85693   1.00
H2       0.40775    0.72379    0.82402   1.00
H2       0.38601    0.67447    0.81734   1.00
C5       0.51659    1.12569    0.88218   1.00
H2       0.48872    1.11939    0.89745   1.00
H2       0.50991    1.14922    0.86090   1.00
C5       0.54718    1.13972    0.91194   1.00
C5       0.54159    1.18332    0.92123   1.00
H2       0.57710    1.13515    0.90015   1.00
O3       0.57076    1.00286    0.73000   1.00
C4       0.49965    0.99977    0.77100   1.00
C3c      0.49756    1.03463    0.79243   1.00
H1       0.49579    1.06222    0.77725   1.00
C3d      0.50137    0.96409    0.79135   1.00
C3       0.49827    1.03458    0.83354   1.00
O2       0.49133    1.06930    0.85248   1.00
C3       0.50284    0.96398    0.83227   1.00
H1       0.50556    0.93600    0.84657   1.00
C2       0.50118    0.99899    0.85439   1.00
C5       0.59000    0.96645    0.72879   1.00
H2       0.59689    0.95719    0.69838   1.00
H2       0.57192    0.94318    0.74266   1.00
C5       0.62815    0.97060    0.75129   1.00
H2       0.62133    0.98091    0.78137   1.00
H2       0.64610    0.99364    0.73698   1.00
C5       0.65044    0.93162    0.75262   1.00
H2       0.65710    0.92101    0.72268   1.00
H2       0.63309    0.90896    0.76811   1.00
C5       0.68935    0.93689    0.77445   1.00
C5       0.46968    0.91401    0.76105   1.00
C5       0.52709    1.08817    0.86070   1.00
H2       0.45405    0.93406    0.74088   1.00
H2       0.45091    0.90871    0.78712   1.00
H2       0.54277    1.09503    0.83300   1.00
H2       0.54700    1.06983    0.87895   1.00
H2       0.54424    1.12385    0.94030   1.00
H2       0.43379    0.88054    0.69247   1.00
H2       0.41435    0.86063    0.73763   1.00
C2       0.50205    0.99828    0.64605   1.00
C3       0.46599    0.99880    0.66597   1.00
O2       0.43198    0.98912    0.64674   1.00
C3       0.53681    1.00021    0.66826   1.00
H1       0.56485    1.00088    0.65385   1.00
C3a      0.46545    1.00019    0.70713   1.00
H1       0.43769    0.99832    0.72202   1.00
C3b      0.53619    1.00032    0.70922   1.00
C4       0.50035    1.00023    0.72900   1.00
O3       0.50645    0.92919    0.77167   1.00
C5       0.41084    1.02314    0.63720   1.00
H2       0.40310    1.04013    0.66391   1.00
C5       0.37358    1.01002    0.61674   1.00
H2       0.42797    1.04229    0.61726   1.00
H2       0.35230    1.00036    0.63932   1.00
H2       0.38091    0.98374    0.59907   1.00
C5       0.35562    1.04201    0.59082   1.00
H2       0.35137    1.06903    0.60824   1.00
C5       0.31587    1.02889    0.57453   1.00
H2       0.37459    1.04851    0.56507   1.00
C5       0.47667    0.87536    0.74017   1.00
H2       0.48604    0.85332    0.76215   1.00
H2       0.50148    0.87928    0.71952   1.00
C5       0.44020    0.86135    0.71800   1.00
C5       0.44687    0.81981    0.70225   1.00
H2       0.51659    1.18693    0.94286   1.00
C5       0.57937    1.19978    0.93912   1.00
H2       0.53449    1.19980    0.89323   1.00
C5       0.70710    0.89660    0.78337   1.00
H2       0.71040    0.95434    0.75551   1.00
H2       0.68396    0.95318    0.80293   1.00
C5       0.29544    1.06380    0.55497   1.00
H2       0.32049    1.00477    0.55211   1.00
H2       0.29693    1.01747    0.59937   1.00
H2       0.47587    0.81863    0.68602   1.00
H2       0.44747    0.79830    0.72761   1.00
C5       0.41354    0.80891    0.67417   1.00
H2       0.59773    1.17480    0.95116   1.00
H2       0.59661    1.21592    0.91571   1.00
H2       0.57173    1.22080    0.96374   1.00
H2       0.68922    0.87301    0.76820   1.00
H2       0.73844    0.89559    0.77229   1.00
H2       0.70677    0.89136    0.81621   1.00
H2       0.31797    1.08224    0.53889   1.00
H2       0.27275    1.05267    0.53336   1.00
H2       0.28049    1.08233    0.57819   1.00
H2       0.42217    0.81693    0.64307   1.00
H2       0.40775    0.77621    0.67598   1.00
H2       0.38601    0.82553    0.68266   1.00
C5       0.62569    1.38218    0.51659   1.00
H2       0.61939    1.39745    0.48872   1.00
H2       0.64922    1.36090    0.50991   1.00
C5       0.63972    1.41194    0.54718   1.00
C5       0.68332    1.42123    0.54159   1.00
H2       0.63515    1.40015    0.57710   1.00
O3       0.50286    1.23000    0.57076   1.00
C4       0.49977    1.27100    0.49965   1.00
C3c      0.53463    1.29243    0.49756   1.00
H1       0.56222    1.27725    0.49579   1.00
C3d      0.46409    1.29135    0.50137   1.00
C3       0.53458    1.33354    0.49827   1.00
O2       0.56930    1.35248    0.49133   1.00
C3       0.46398    1.33227    0.50284   1.00
H1       0.43600    1.34657    0.50556   1.00
C2       0.49899    1.35439    0.50118   1.00
C5       0.46645    1.22879    0.59000   1.00
H2       0.45719    1.19838    0.59689   1.00
H2       0.44318    1.24266    0.57192   1.00
C5       0.47060    1.25129    0.62815   1.00
H2       0.48091    1.28137    0.62133   1.00
H2       0.49364    1.23698    0.64610   1.00
C5       0.43162    1.25262    0.65044   1.00
H2       0.42101    1.22268    0.65710   1.00
H2       0.40896    1.26811    0.63309   1.00
C5       0.43689    1.27445    0.68935   1.00
C5       0.41401    1.26105    0.46968   1.00
C5       0.58817    1.36070    0.52709   1.00
H2       0.43406    1.24088    0.45405   1.00
H2       0.40871    1.28712    0.45091   1.00
H2       0.59503    1.33300    0.54277   1.00
H2       0.56983    1.37895    0.54700   1.00
H2       0.62385    1.44030    0.54424   1.00
H2       0.38054    1.19247    0.43379   1.00
H2       0.36063    1.23763    0.41435   1.00
C2       0.49828    1.14605    0.50205   1.00
C3       0.49880    1.16597    0.46599   1.00
O2       0.48912    1.14674    0.43198   1.00
C3       0.50021    1.16826    0.53681   1.00
H1       0.50088    1.15385    0.56485   1.00
C3a      0.50019    1.20713    0.46545   1.00
H1       0.49832    1.22202    0.43769   1.00
C3b      0.50032    1.20922    0.53619   1.00
C4       0.50023    1.22900    0.50035   1.00
O3       0.42919    1.27167    0.50645   1.00
C5       0.52314    1.13720    0.41084   1.00
H2       0.54013    1.16391    0.40310   1.00
C5       0.51002    1.11674    0.37358   1.00
H2       0.54229    1.11726    0.42797   1.00
H2       0.50036    1.13932    0.35230   1.00
H2       0.48374    1.09907    0.38091   1.00
C5       0.54201    1.09082    0.35562   1.00
H2       0.56903    1.10824    0.35137   1.00
C5       0.52889    1.07453    0.31587   1.00
H2       0.54851    1.06507    0.37459   1.00
C5       0.37536    1.24017    0.47667   1.00
H2       0.35332    1.26215    0.48604   1.00
H2       0.37928    1.21952    0.50148   1.00
C5       0.36135    1.21800    0.44020   1.00
C5       0.31981    1.20225    0.44687   1.00
H2       0.68693    1.44286    0.51659   1.00
C5       0.69978    1.43912    0.57937   1.00
H2       0.69980    1.39323    0.53449   1.00
C5       0.39660    1.28337    0.70710   1.00
H2       0.45434    1.25551    0.71040   1.00
H2       0.45318    1.30293    0.68396   1.00
C5       0.56380    1.05497    0.29544   1.00
H2       0.50477    1.05211    0.32049   1.00
H2       0.51747    1.09937    0.29693   1.00
H2       0.31863    1.18602    0.47587   1.00
H2       0.29830    1.22761    0.44747   1.00
C5       0.30891    1.17417    0.41354   1.00
H2       0.67480    1.45116    0.59773   1.00
H2       0.71592    1.41571    0.59661   1.00
H2       0.72080    1.46374    0.57173   1.00
H2       0.37301    1.26820    0.68922   1.00
H2       0.39559    1.27229    0.73844   1.00
H2       0.39136    1.31621    0.70677   1.00
H2       0.58224    1.03889    0.31797   1.00
H2       0.55267    1.03336    0.27275   1.00
H2       0.58233    1.07819    0.28049   1.00
H2       0.31693    1.14307    0.42217   1.00
H2       0.27621    1.17598    0.40775   1.00
H2       0.32553    1.18266    0.38601   1.00
C5       0.11782    1.01659    0.37431   1.00
H2       0.10255    0.98872    0.38061   1.00
H2       0.13910    1.00991    0.35078   1.00
C5       0.08806    1.04718    0.36028   1.00
C5       0.07877    1.04159    0.31668   1.00
H2       0.09985    1.07710    0.36485   1.00
O3       0.27000    1.07076    0.49714   1.00
C4       0.22900    0.99965    0.50023   1.00
C3c      0.20757    0.99756    0.46537   1.00
H1       0.22275    0.99579    0.43778   1.00
C3d      0.20865    1.00137    0.53591   1.00
C3       0.16646    0.99827    0.46542   1.00
O2       0.14752    0.99133    0.43070   1.00
C3       0.16773    1.00284    0.53602   1.00
H1       0.15343    1.00556    0.56400   1.00
C2       0.14561    1.00118    0.50101   1.00
C5       0.27121    1.09000    0.53355   1.00
H2       0.30162    1.09689    0.54281   1.00
H2       0.25734    1.07192    0.55682   1.00
C5       0.24871    1.12815    0.52940   1.00
H2       0.21863    1.12133    0.51909   1.00
H2       0.26302    1.14610    0.50636   1.00
C5       0.24738    1.15044    0.56838   1.00
H2       0.27732    1.15710    0.57899   1.00
H2       0.23189    1.13309    0.59104   1.00
C5       0.22555    1.18935    0.56311   1.00
C5       0.23895    0.96968    0.58599   1.00
C5       0.13930    1.02709    0.41183   1.00
H2       0.25912    0.95405    0.56594   1.00
H2       0.21288    0.95091    0.59129   1.00
H2       0.16700    1.04277    0.40497   1.00
H2       0.12105    1.04700    0.43017   1.00
H2       0.05970    1.04424    0.37615   1.00
H2       0.30753    0.93379    0.61946   1.00
H2       0.26237    0.91435    0.63937   1.00
C2       0.35395    1.00205    0.50172   1.00
C3       0.33403    0.96599    0.50120   1.00
O2       0.35326    0.93198    0.51088   1.00
C3       0.33174    1.03681    0.49979   1.00
H1       0.34615    1.06485    0.49912   1.00
C3a      0.29287    0.96545    0.49981   1.00
H1       0.27798    0.93769    0.50168   1.00
C3b      0.29078    1.03619    0.49968   1.00
C4       0.27100    1.00035    0.49977   1.00
O3       0.22833    1.00645    0.57081   1.00
C5       0.36280    0.91084    0.47686   1.00
H2       0.33609    0.90310    0.45987   1.00
C5       0.38326    0.87358    0.48998   1.00
H2       0.38274    0.92797    0.45771   1.00
H2       0.36068    0.85230    0.49964   1.00
H2       0.40093    0.88091    0.51626   1.00
C5       0.40918    0.85562    0.45799   1.00
H2       0.39176    0.85137    0.43097   1.00
C5       0.42547    0.81587    0.47111   1.00
H2       0.43493    0.87459    0.45149   1.00
C5       0.25983    0.97667    0.62464   1.00
H2       0.23785    0.98604    0.64668   1.00
H2       0.28048    1.00148    0.62072   1.00
C5       0.28200    0.94020    0.63865   1.00
C5       0.29775    0.94687    0.68019   1.00
H2       0.05714    1.01659    0.31307   1.00
C5       0.06088    1.07937    0.30022   1.00
H2       0.10677    1.03449    0.30020   1.00
C5       0.21663    1.20710    0.60340   1.00
H2       0.24449    1.21040    0.54566   1.00
H2       0.19707    1.18396    0.54682   1.00
C5       0.44503    0.79544    0.43620   1.00
H2       0.44789    0.82049    0.49523   1.00
H2       0.40063    0.79693    0.48253   1.00
H2       0.31398    0.97587    0.68137   1.00
H2       0.27239    0.94747    0.70170   1.00
C5       0.32583    0.91354    0.69109   1.00
H2       0.04884    1.09773    0.32520   1.00
H2       0.08429    1.09661    0.28408   1.00
H2       0.03626    1.07173    0.27920   1.00
H2       0.23180    1.18922    0.62699   1.00
H2       0.22771    1.23844    0.60441   1.00
H2       0.18379    1.20677    0.60864   1.00
H2       0.46111    0.81797    0.41776   1.00
H2       0.46664    0.77275    0.44733   1.00
H2       0.42181    0.78049    0.41767   1.00
H2       0.35693    0.92217    0.68307   1.00
H2       0.32402    0.90775    0.72379   1.00
H2       0.31734    0.88601    0.67447   1.00
C5       0.88218    1.01659    0.62569   1.00
H2       0.89745    0.98872    0.61939   1.00
H2       0.86090    1.00991    0.64922   1.00
C5       0.91194    1.04718    0.63972   1.00
C5       0.92123    1.04159    0.68332   1.00
H2       0.90015    1.07710    0.63515   1.00
O3       0.73000    1.07076    0.50286   1.00
C4       0.77100    0.99965    0.49977   1.00
C3c      0.79243    0.99756    0.53463   1.00
H1       0.77725    0.99579    0.56222   1.00
C3d      0.79135    1.00137    0.46409   1.00
C3       0.83354    0.99827    0.53458   1.00
O2       0.85248    0.99133    0.56930   1.00
C3       0.83227    1.00284    0.46398   1.00
H1       0.84657    1.00556    0.43600   1.00
C2       0.85439    1.00118    0.49899   1.00
C5       0.72879    1.09000    0.46645   1.00
H2       0.69838    1.09689    0.45719   1.00
H2       0.74266    1.07192    0.44318   1.00
C5       0.75129    1.12815    0.47060   1.00
H2       0.78137    1.12133    0.48091   1.00
H2       0.73698    1.14610    0.49364   1.00
C5       0.75262    1.15044    0.43162   1.00
H2       0.72268    1.15710    0.42101   1.00
H2       0.76811    1.13309    0.40896   1.00
C5       0.77445    1.18935    0.43689   1.00
C5       0.76105    0.96968    0.41401   1.00
C5       0.86070    1.02709    0.58817   1.00
H2       0.74088    0.95405    0.43406   1.00
H2       0.78712    0.95091    0.40871   1.00
H2       0.83300    1.04277    0.59503   1.00
H2       0.87895    1.04700    0.56983   1.00
H2       0.94030    1.04424    0.62385   1.00
H2       0.69247    0.93379    0.38054   1.00
H2       0.73763    0.91435    0.36063   1.00
C2       0.64605    1.00205    0.49828   1.00
C3       0.66597    0.96599    0.49880   1.00
O2       0.64674    0.93198    0.48912   1.00
C3       0.66826    1.03681    0.50021   1.00
H1       0.65385    1.06485    0.50088   1.00
C3a      0.70713    0.96545    0.50019   1.00
H1       0.72202    0.93769    0.49832   1.00
C3b      0.70922    1.03619    0.50032   1.00
C4       0.72900    1.00035    0.50023   1.00
O3       0.77167    1.00645    0.42919   1.00
C5       0.63720    0.91084    0.52314   1.00
H2       0.66391    0.90310    0.54013   1.00
C5       0.61674    0.87358    0.51002   1.00
H2       0.61726    0.92797    0.54229   1.00
H2       0.63932    0.85230    0.50036   1.00
H2       0.59907    0.88091    0.48374   1.00
C5       0.59082    0.85562    0.54201   1.00
H2       0.60824    0.85137    0.56903   1.00
C5       0.57453    0.81587    0.52889   1.00
H2       0.56507    0.87459    0.54851   1.00
C5       0.74017    0.97667    0.37536   1.00
H2       0.76215    0.98604    0.35332   1.00
H2       0.71952    1.00148    0.37928   1.00
C5       0.71800    0.94020    0.36135   1.00
C5       0.70225    0.94687    0.31981   1.00
H2       0.94286    1.01659    0.68693   1.00
C5       0.93912    1.07937    0.69978   1.00
H2       0.89323    1.03449    0.69980   1.00
C5       0.78337    1.20710    0.39660   1.00
H2       0.75551    1.21040    0.45434   1.00
H2       0.80293    1.18396    0.45318   1.00
C5       0.55497    0.79544    0.56380   1.00
H2       0.55211    0.82049    0.50477   1.00
H2       0.59937    0.79693    0.51747   1.00
H2       0.68602    0.97587    0.31863   1.00
H2       0.72761    0.94747    0.29830   1.00
C5       0.67417    0.91354    0.30891   1.00
H2       0.95116    1.09773    0.67480   1.00
H2       0.91571    1.09661    0.71592   1.00
H2       0.96374    1.07173    0.72080   1.00
H2       0.76820    1.18922    0.37301   1.00
H2       0.77229    1.23844    0.39559   1.00
H2       0.81621    1.20677    0.39136   1.00
H2       0.53889    0.81797    0.58224   1.00
H2       0.53336    0.77275    0.55267   1.00
H2       0.57819    0.78049    0.58233   1.00
H2       0.64307    0.92217    0.31693   1.00
H2       0.67598    0.90775    0.27621   1.00
H2       0.68266    0.88601    0.32553   1.00
C5       0.37431    0.61782    0.51659   1.00
H2       0.38061    0.60255    0.48872   1.00
H2       0.35078    0.63910    0.50991   1.00
C5       0.36028    0.58806    0.54718   1.00
C5       0.31668    0.57877    0.54159   1.00
H2       0.36485    0.59985    0.57710   1.00
O3       0.49714    0.77000    0.57076   1.00
C4       0.50023    0.72900    0.49965   1.00
C3c      0.46537    0.70757    0.49756   1.00
H1       0.43778    0.72275    0.49579   1.00
C3d      0.53591    0.70865    0.50137   1.00
C3       0.46542    0.66646    0.49827   1.00
O2       0.43070    0.64752    0.49133   1.00
C3       0.53602    0.66773    0.50284   1.00
H1       0.56400    0.65343    0.50556   1.00
C2       0.50101    0.64561    0.50118   1.00
C5       0.53355    0.77121    0.59000   1.00
H2       0.54281    0.80162    0.59689   1.00
H2       0.55682    0.75734    0.57192   1.00
C5       0.52940    0.74871    0.62815   1.00
H2       0.51909    0.71863    0.62133   1.00
H2       0.50636    0.76302    0.64610   1.00
C5       0.56838    0.74738    0.65044   1.00
H2       0.57899    0.77732    0.65710   1.00
H2       0.59104    0.73189    0.63309   1.00
C5       0.56311    0.72555    0.68935   1.00
C5       0.58599    0.73895    0.46968   1.00
C5       0.41183    0.63930    0.52709   1.00
H2       0.56594    0.75912    0.45405   1.00
H2       0.59129    0.71288    0.45091   1.00
H2       0.40497    0.66700    0.54277   1.00
H2       0.43017    0.62105    0.54700   1.00
H2       0.37615    0.55970    0.54424   1.00
H2       0.61946    0.80753    0.43379   1.00
H2       0.63937    0.76237    0.41435   1.00
C2       0.50172    0.85395    0.50205   1.00
C3       0.50120    0.83403    0.46599   1.00
O2       0.51088    0.85326    0.43198   1.00
C3       0.49979    0.83174    0.53681   1.00
H1       0.49912    0.84615    0.56485   1.00
C3a      0.49981    0.79287    0.46545   1.00
H1       0.50168    0.77798    0.43769   1.00
C3b      0.49968    0.79078    0.53619   1.00
C4       0.49977    0.77100    0.50035   1.00
O3       0.57081    0.72833    0.50645   1.00
C5       0.47686    0.86280    0.41084   1.00
H2       0.45987    0.83609    0.40310   1.00
C5       0.48998    0.88326    0.37358   1.00
H2       0.45771    0.88274    0.42797   1.00
H2       0.49964    0.86068    0.35230   1.00
H2       0.51626    0.90093    0.38091   1.00
C5       0.45799    0.90918    0.35562   1.00
H2       0.43097    0.89176    0.35137   1.00
C5       0.47111    0.92547    0.31587   1.00
H2       0.45149    0.93493    0.37459   1.00
C5       0.62464    0.75983    0.47667   1.00
H2       0.64668    0.73785    0.48604   1.00
H2       0.62072    0.78048    0.50148   1.00
C5       0.63865    0.78200    0.44020   1.00
C5       0.68019    0.79775    0.44687   1.00
H2       0.31307    0.55714    0.51659   1.00
C5       0.30022    0.56088    0.57937   1.00
H2       0.30020    0.60677    0.53449   1.00
C5       0.60340    0.71663    0.70710   1.00
H2       0.54566    0.74449    0.71040   1.00
H2       0.54682    0.69707    0.68396   1.00
C5       0.43620    0.94503    0.29544   1.00
H2       0.49523    0.94789    0.32049   1.00
H2       0.48253    0.90063    0.29693   1.00
H2       0.68137    0.81398    0.47587   1.00
H2       0.70170    0.77239    0.44747   1.00
C5       0.69109    0.82583    0.41354   1.00
H2       0.32520    0.54884    0.59773   1.00
H2       0.28408    0.58429    0.59661   1.00
H2       0.27920    0.53626    0.57173   1.00
H2       0.62699    0.73180    0.68922   1.00
H2       0.60441    0.72771    0.73844   1.00
H2       0.60864    0.68379    0.70677   1.00
H2       0.41776    0.96111    0.31797   1.00
H2       0.44733    0.96664    0.27275   1.00
H2       0.41767    0.92181    0.28049   1.00
H2       0.68307    0.85693    0.42217   1.00
H2       0.72379    0.82402    0.40775   1.00
H2       0.67447    0.81734    0.38601   1.00
C5       0.51659    0.87431    0.11782   1.00
H2       0.48872    0.88061    0.10255   1.00
H2       0.50991    0.85078    0.13910   1.00
C5       0.54718    0.86028    0.08806   1.00
C5       0.54159    0.81668    0.07877   1.00
H2       0.57710    0.86485    0.09985   1.00
O3       0.57076    0.99714    0.27000   1.00
C4       0.49965    1.00023    0.22900   1.00
C3c      0.49756    0.96537    0.20757   1.00
H1       0.49579    0.93778    0.22275   1.00
C3d      0.50137    1.03591    0.20865   1.00
C3       0.49827    0.96542    0.16646   1.00
O2       0.49133    0.93070    0.14752   1.00
C3       0.50284    1.03602    0.16773   1.00
H1       0.50556    1.06400    0.15343   1.00
C2       0.50118    1.00101    0.14561   1.00
C5       0.59000    1.03355    0.27121   1.00
H2       0.59689    1.04281    0.30162   1.00
H2       0.57192    1.05682    0.25734   1.00
C5       0.62815    1.02940    0.24871   1.00
H2       0.62133    1.01909    0.21863   1.00
H2       0.64610    1.00636    0.26302   1.00
C5       0.65044    1.06838    0.24738   1.00
H2       0.65710    1.07899    0.27732   1.00
H2       0.63309    1.09104    0.23189   1.00
C5       0.68935    1.06311    0.22555   1.00
C5       0.46968    1.08599    0.23895   1.00
C5       0.52709    0.91183    0.13930   1.00
H2       0.45405    1.06594    0.25912   1.00
H2       0.45091    1.09129    0.21288   1.00
H2       0.54277    0.90497    0.16700   1.00
H2       0.54700    0.93017    0.12105   1.00
H2       0.54424    0.87615    0.05970   1.00
H2       0.43379    1.11946    0.30753   1.00
H2       0.41435    1.13937    0.26237   1.00
C2       0.50205    1.00172    0.35395   1.00
C3       0.46599    1.00120    0.33403   1.00
O2       0.43198    1.01088    0.35326   1.00
C3       0.53681    0.99979    0.33174   1.00
H1       0.56485    0.99912    0.34615   1.00
C3a      0.46545    0.99981    0.29287   1.00
H1       0.43769    1.00168    0.27798   1.00
C3b      0.53619    0.99968    0.29078   1.00
C4       0.50035    0.99977    0.27100   1.00
O3       0.50645    1.07081    0.22833   1.00
C5       0.41084    0.97686    0.36280   1.00
H2       0.40310    0.95987    0.33609   1.00
C5       0.37358    0.98998    0.38326   1.00
H2       0.42797    0.95771    0.38274   1.00
H2       0.35230    0.99964    0.36068   1.00
H2       0.38091    1.01626    0.40093   1.00
C5       0.35562    0.95799    0.40918   1.00
H2       0.35137    0.93097    0.39176   1.00
C5       0.31587    0.97111    0.42547   1.00
H2       0.37459    0.95149    0.43493   1.00
C5       0.47667    1.12464    0.25983   1.00
H2       0.48604    1.14668    0.23785   1.00
H2       0.50148    1.12072    0.28048   1.00
C5       0.44020    1.13865    0.28200   1.00
C5       0.44687    1.18019    0.29775   1.00
H2       0.51659    0.81307    0.05714   1.00
C5       0.57937    0.80022    0.06088   1.00
H2       0.53449    0.80020    0.10677   1.00
C5       0.70710    1.10340    0.21663   1.00
H2       0.71040    1.04566    0.24449   1.00
H2       0.68396    1.04682    0.19707   1.00
C5       0.29544    0.93620    0.44503   1.00
H2       0.32049    0.99523    0.44789   1.00
H2       0.29693    0.98253    0.40063   1.00
H2       0.47587    1.18137    0.31398   1.00
H2       0.44747    1.20170    0.27239   1.00
C5       0.41354    1.19109    0.32583   1.00
H2       0.59773    0.82520    0.04884   1.00
H2       0.59661    0.78408    0.08429   1.00
H2       0.57173    0.77920    0.03626   1.00
H2       0.68922    1.12699    0.23180   1.00
H2       0.73844    1.10441    0.22771   1.00
H2       0.70677    1.10864    0.18379   1.00
H2       0.31797    0.91776    0.46111   1.00
H2       0.27275    0.94733    0.46664   1.00
H2       0.28049    0.91767    0.42181   1.00
H2       0.42217    1.18307    0.35693   1.00
H2       0.40775    1.22379    0.32402   1.00
H2       0.38601    1.17447    0.31734   1.00
C5       1.01659    0.62569    0.88218   1.00
H2       0.98872    0.61939    0.89745   1.00
H2       1.00991    0.64922    0.86090   1.00
C5       1.04718    0.63972    0.91194   1.00
C5       1.04159    0.68332    0.92123   1.00
H2       1.07710    0.63515    0.90015   1.00
O3       1.07076    0.50286    0.73000   1.00
C4       0.99965    0.49977    0.77100   1.00
C3c      0.99756    0.53463    0.79243   1.00
H1       0.99579    0.56222    0.77725   1.00
C3d      1.00137    0.46409    0.79135   1.00
C3       0.99827    0.53458    0.83354   1.00
O2       0.99133    0.56930    0.85248   1.00
C3       1.00284    0.46398    0.83227   1.00
H1       1.00556    0.43600    0.84657   1.00
C2       1.00118    0.49899    0.85439   1.00
C5       1.09000    0.46645    0.72879   1.00
H2       1.09689    0.45719    0.69838   1.00
H2       1.07192    0.44318    0.74266   1.00
C5       1.12815    0.47060    0.75129   1.00
H2       1.12133    0.48091    0.78137   1.00
H2       1.14610    0.49364    0.73698   1.00
C5       1.15044    0.43162    0.75262   1.00
H2       1.15710    0.42101    0.72268   1.00
H2       1.13309    0.40896    0.76811   1.00
C5       1.18935    0.43689    0.77445   1.00
C5       0.96968    0.41401    0.76105   1.00
C5       1.02709    0.58817    0.86070   1.00
H2       0.95405    0.43406    0.74088   1.00
H2       0.95091    0.40871    0.78712   1.00
H2       1.04277    0.59503    0.83300   1.00
H2       1.04700    0.56983    0.87895   1.00
H2       1.04424    0.62385    0.94030   1.00
H2       0.93379    0.38054    0.69247   1.00
H2       0.91435    0.36063    0.73763   1.00
C2       1.00205    0.49828    0.64605   1.00
C3       0.96599    0.49880    0.66597   1.00
O2       0.93198    0.48912    0.64674   1.00
C3       1.03681    0.50021    0.66826   1.00
H1       1.06485    0.50088    0.65385   1.00
C3a      0.96545    0.50019    0.70713   1.00
H1       0.93769    0.49832    0.72202   1.00
C3b      1.03619    0.50032    0.70922   1.00
C4       1.00035    0.50023    0.72900   1.00
O3       1.00645    0.42919    0.77167   1.00
C5       0.91084    0.52314    0.63720   1.00
H2       0.90310    0.54013    0.66391   1.00
C5       0.87358    0.51002    0.61674   1.00
H2       0.92797    0.54229    0.61726   1.00
H2       0.85230    0.50036    0.63932   1.00
H2       0.88091    0.48374    0.59907   1.00
C5       0.85562    0.54201    0.59082   1.00
H2       0.85137    0.56903    0.60824   1.00
C5       0.81587    0.52889    0.57453   1.00
H2       0.87459    0.54851    0.56507   1.00
C5       0.97667    0.37536    0.74017   1.00
H2       0.98604    0.35332    0.76215   1.00
H2       1.00148    0.37928    0.71952   1.00
C5       0.94020    0.36135    0.71800   1.00
C5       0.94687    0.31981    0.70225   1.00
H2       1.01659    0.68693    0.94286   1.00
C5       1.07937    0.69978    0.93912   1.00
H2       1.03449    0.69980    0.89323   1.00
C5       1.20710    0.39660    0.78337   1.00
H2       1.21040    0.45434    0.75551   1.00
H2       1.18396    0.45318    0.80293   1.00
C5       0.79544    0.56380    0.55497   1.00
H2       0.82049    0.50477    0.55211   1.00
H2       0.79693    0.51747    0.59937   1.00
H2       0.97587    0.31863    0.68602   1.00
H2       0.94747    0.29830    0.72761   1.00
C5       0.91354    0.30891    0.67417   1.00
H2       1.09773    0.67480    0.95116   1.00
H2       1.09661    0.71592    0.91571   1.00
H2       1.07173    0.72080    0.96374   1.00
H2       1.18922    0.37301    0.76820   1.00
H2       1.23844    0.39559    0.77229   1.00
H2       1.20677    0.39136    0.81621   1.00
H2       0.81797    0.58224    0.53889   1.00
H2       0.77275    0.55267    0.53336   1.00
H2       0.78049    0.58233    0.57819   1.00
H2       0.92217    0.31693    0.64307   1.00
H2       0.90775    0.27621    0.67598   1.00
H2       0.88601    0.32553    0.68266   1.00
C5       1.12569    0.88218    0.51659   1.00
H2       1.11939    0.89745    0.48872   1.00
H2       1.14922    0.86090    0.50991   1.00
C5       1.13972    0.91194    0.54718   1.00
C5       1.18332    0.92123    0.54159   1.00
H2       1.13515    0.90015    0.57710   1.00
O3       1.00286    0.73000    0.57076   1.00
C4       0.99977    0.77100    0.49965   1.00
C3c      1.03463    0.79243    0.49756   1.00
H1       1.06222    0.77725    0.49579   1.00
C3d      0.96409    0.79135    0.50137   1.00
C3       1.03458    0.83354    0.49827   1.00
O2       1.06930    0.85248    0.49133   1.00
C3       0.96398    0.83227    0.50284   1.00
H1       0.93600    0.84657    0.50556   1.00
C2       0.99899    0.85439    0.50118   1.00
C5       0.96645    0.72879    0.59000   1.00
H2       0.95719    0.69838    0.59689   1.00
H2       0.94318    0.74266    0.57192   1.00
C5       0.97060    0.75129    0.62815   1.00
H2       0.98091    0.78137    0.62133   1.00
H2       0.99364    0.73698    0.64610   1.00
C5       0.93162    0.75262    0.65044   1.00
H2       0.92101    0.72268    0.65710   1.00
H2       0.90896    0.76811    0.63309   1.00
C5       0.93689    0.77445    0.68935   1.00
C5       0.91401    0.76105    0.46968   1.00
C5       1.08817    0.86070    0.52709   1.00
H2       0.93406    0.74088    0.45405   1.00
H2       0.90871    0.78712    0.45091   1.00
H2       1.09503    0.83300    0.54277   1.00
H2       1.06983    0.87895    0.54700   1.00
H2       1.12385    0.94030    0.54424   1.00
H2       0.88054    0.69247    0.43379   1.00
H2       0.86063    0.73763    0.41435   1.00
C2       0.99828    0.64605    0.50205   1.00
C3       0.99880    0.66597    0.46599   1.00
O2       0.98912    0.64674    0.43198   1.00
C3       1.00021    0.66826    0.53681   1.00
H1       1.00088    0.65385    0.56485   1.00
C3a      1.00019    0.70713    0.46545   1.00
H1       0.99832    0.72202    0.43769   1.00
C3b      1.00032    0.70922    0.53619   1.00
C4       1.00023    0.72900    0.50035   1.00
O3       0.92919    0.77167    0.50645   1.00
C5       1.02314    0.63720    0.41084   1.00
H2       1.04013    0.66391    0.40310   1.00
C5       1.01002    0.61674    0.37358   1.00
H2       1.04229    0.61726    0.42797   1.00
H2       1.00036    0.63932    0.35230   1.00
H2       0.98374    0.59907    0.38091   1.00
C5       1.04201    0.59082    0.35562   1.00
H2       1.06903    0.60824    0.35137   1.00
C5       1.02889    0.57453    0.31587   1.00
H2       1.04851    0.56507    0.37459   1.00
C5       0.87536    0.74017    0.47667   1.00
H2       0.85332    0.76215    0.48604   1.00
H2       0.87928    0.71952    0.50148   1.00
C5       0.86135    0.71800    0.44020   1.00
C5       0.81981    0.70225    0.44687   1.00
H2       1.18693    0.94286    0.51659   1.00
C5       1.19978    0.93912    0.57937   1.00
H2       1.19980    0.89323    0.53449   1.00
C5       0.89660    0.78337    0.70710   1.00
H2       0.95434    0.75551    0.71040   1.00
H2       0.95318    0.80293    0.68396   1.00
C5       1.06380    0.55497    0.29544   1.00
H2       1.00477    0.55211    0.32049   1.00
H2       1.01747    0.59937    0.29693   1.00
H2       0.81863    0.68602    0.47587   1.00
H2       0.79830    0.72761    0.44747   1.00
C5       0.80891    0.67417    0.41354   1.00
H2       1.17480    0.95116    0.59773   1.00
H2       1.21592    0.91571    0.59661   1.00
H2       1.22080    0.96374    0.57173   1.00
H2       0.87301    0.76820    0.68922   1.00
H2       0.89559    0.77229    0.73844   1.00
H2       0.89136    0.81621    0.70677   1.00
H2       1.08224    0.53889    0.31797   1.00
H2       1.05267    0.53336    0.27275   1.00
H2       1.08233    0.57819    0.28049   1.00
H2       0.81693    0.64307    0.42217   1.00
H2       0.77621    0.67598    0.40775   1.00
H2       0.82553    0.68266    0.38601   1.00
C5       0.61782    0.51659    0.37431   1.00
H2       0.60255    0.48872    0.38061   1.00
H2       0.63910    0.50991    0.35078   1.00
C5       0.58806    0.54718    0.36028   1.00
C5       0.57877    0.54159    0.31668   1.00
H2       0.59985    0.57710    0.36485   1.00
O3       0.77000    0.57076    0.49714   1.00
C4       0.72900    0.49965    0.50023   1.00
C3c      0.70757    0.49756    0.46537   1.00
H1       0.72275    0.49579    0.43778   1.00
C3d      0.70865    0.50137    0.53591   1.00
C3       0.66646    0.49827    0.46542   1.00
O2       0.64752    0.49133    0.43070   1.00
C3       0.66773    0.50284    0.53602   1.00
H1       0.65343    0.50556    0.56400   1.00
C2       0.64561    0.50118    0.50101   1.00
C5       0.77121    0.59000    0.53355   1.00
H2       0.80162    0.59689    0.54281   1.00
H2       0.75734    0.57192    0.55682   1.00
C5       0.74871    0.62815    0.52940   1.00
H2       0.71863    0.62133    0.51909   1.00
H2       0.76302    0.64610    0.50636   1.00
C5       0.74738    0.65044    0.56838   1.00
H2       0.77732    0.65710    0.57899   1.00
H2       0.73189    0.63309    0.59104   1.00
C5       0.72555    0.68935    0.56311   1.00
C5       0.73895    0.46968    0.58599   1.00
C5       0.63930    0.52709    0.41183   1.00
H2       0.75912    0.45405    0.56594   1.00
H2       0.71288    0.45091    0.59129   1.00
H2       0.66700    0.54277    0.40497   1.00
H2       0.62105    0.54700    0.43017   1.00
H2       0.55970    0.54424    0.37615   1.00
H2       0.80753    0.43379    0.61946   1.00
H2       0.76237    0.41435    0.63937   1.00
C2       0.85395    0.50205    0.50172   1.00
C3       0.83403    0.46599    0.50120   1.00
O2       0.85326    0.43198    0.51088   1.00
C3       0.83174    0.53681    0.49979   1.00
H1       0.84615    0.56485    0.49912   1.00
C3a      0.79287    0.46545    0.49981   1.00
H1       0.77798    0.43769    0.50168   1.00
C3b      0.79078    0.53619    0.49968   1.00
C4       0.77100    0.50035    0.49977   1.00
O3       0.72833    0.50645    0.57081   1.00
C5       0.86280    0.41084    0.47686   1.00
H2       0.83609    0.40310    0.45987   1.00
C5       0.88326    0.37358    0.48998   1.00
H2       0.88274    0.42797    0.45771   1.00
H2       0.86068    0.35230    0.49964   1.00
H2       0.90093    0.38091    0.51626   1.00
C5       0.90918    0.35562    0.45799   1.00
H2       0.89176    0.35137    0.43097   1.00
C5       0.92547    0.31587    0.47111   1.00
H2       0.93493    0.37459    0.45149   1.00
C5       0.75983    0.47667    0.62464   1.00
H2       0.73785    0.48604    0.64668   1.00
H2       0.78048    0.50148    0.62072   1.00
C5       0.78200    0.44020    0.63865   1.00
C5       0.79775    0.44687    0.68019   1.00
H2       0.55714    0.51659    0.31307   1.00
C5       0.56088    0.57937    0.30022   1.00
H2       0.60677    0.53449    0.30020   1.00
C5       0.71663    0.70710    0.60340   1.00
H2       0.74449    0.71040    0.54566   1.00
H2       0.69707    0.68396    0.54682   1.00
C5       0.94503    0.29544    0.43620   1.00
H2       0.94789    0.32049    0.49523   1.00
H2       0.90063    0.29693    0.48253   1.00
H2       0.81398    0.47587    0.68137   1.00
H2       0.77239    0.44747    0.70170   1.00
C5       0.82583    0.41354    0.69109   1.00
H2       0.54884    0.59773    0.32520   1.00
H2       0.58429    0.59661    0.28408   1.00
H2       0.53626    0.57173    0.27920   1.00
H2       0.73180    0.68922    0.62699   1.00
H2       0.72771    0.73844    0.60441   1.00
H2       0.68379    0.70677    0.60864   1.00
H2       0.96111    0.31797    0.41776   1.00
H2       0.96664    0.27275    0.44733   1.00
H2       0.92181    0.28049    0.41767   1.00
H2       0.85693    0.42217    0.68307   1.00
H2       0.82402    0.40775    0.72379   1.00
H2       0.81734    0.38601    0.67447   1.00
C5       1.38218    0.51659    0.62569   1.00
H2       1.39745    0.48872    0.61939   1.00
H2       1.36090    0.50991    0.64922   1.00
C5       1.41194    0.54718    0.63972   1.00
C5       1.42123    0.54159    0.68332   1.00
H2       1.40015    0.57710    0.63515   1.00
O3       1.23000    0.57076    0.50286   1.00
C4       1.27100    0.49965    0.49977   1.00
C3c      1.29243    0.49756    0.53463   1.00
H1       1.27725    0.49579    0.56222   1.00
C3d      1.29135    0.50137    0.46409   1.00
C3       1.33354    0.49827    0.53458   1.00
O2       1.35248    0.49133    0.56930   1.00
C3       1.33227    0.50284    0.46398   1.00
H1       1.34657    0.50556    0.43600   1.00
C2       1.35439    0.50118    0.49899   1.00
C5       1.22879    0.59000    0.46645   1.00
H2       1.19838    0.59689    0.45719   1.00
H2       1.24266    0.57192    0.44318   1.00
C5       1.25129    0.62815    0.47060   1.00
H2       1.28137    0.62133    0.48091   1.00
H2       1.23698    0.64610    0.49364   1.00
C5       1.25262    0.65044    0.43162   1.00
H2       1.22268    0.65710    0.42101   1.00
H2       1.26811    0.63309    0.40896   1.00
C5       1.27445    0.68935    0.43689   1.00
C5       1.26105    0.46968    0.41401   1.00
C5       1.36070    0.52709    0.58817   1.00
H2       1.24088    0.45405    0.43406   1.00
H2       1.28712    0.45091    0.40871   1.00
H2       1.33300    0.54277    0.59503   1.00
H2       1.37895    0.54700    0.56983   1.00
H2       1.44030    0.54424    0.62385   1.00
H2       1.19247    0.43379    0.38054   1.00
H2       1.23763    0.41435    0.36063   1.00
C2       1.14605    0.50205    0.49828   1.00
C3       1.16597    0.46599    0.49880   1.00
O2       1.14674    0.43198    0.48912   1.00
C3       1.16826    0.53681    0.50021   1.00
H1       1.15385    0.56485    0.50088   1.00
C3a      1.20713    0.46545    0.50019   1.00
H1       1.22202    0.43769    0.49832   1.00
C3b      1.20922    0.53619    0.50032   1.00
C4       1.22900    0.50035    0.50023   1.00
O3       1.27167    0.50645    0.42919   1.00
C5       1.13720    0.41084    0.52314   1.00
H2       1.16391    0.40310    0.54013   1.00
C5       1.11674    0.37358    0.51002   1.00
H2       1.11726    0.42797    0.54229   1.00
H2       1.13932    0.35230    0.50036   1.00
H2       1.09907    0.38091    0.48374   1.00
C5       1.09082    0.35562    0.54201   1.00
H2       1.10824    0.35137    0.56903   1.00
C5       1.07453    0.31587    0.52889   1.00
H2       1.06507    0.37459    0.54851   1.00
C5       1.24017    0.47667    0.37536   1.00
H2       1.26215    0.48604    0.35332   1.00
H2       1.21952    0.50148    0.37928   1.00
C5       1.21800    0.44020    0.36135   1.00
C5       1.20225    0.44687    0.31981   1.00
H2       1.44286    0.51659    0.68693   1.00
C5       1.43912    0.57937    0.69978   1.00
H2       1.39323    0.53449    0.69980   1.00
C5       1.28337    0.70710    0.39660   1.00
H2       1.25551    0.71040    0.45434   1.00
H2       1.30293    0.68396    0.45318   1.00
C5       1.05497    0.29544    0.56380   1.00
H2       1.05211    0.32049    0.50477   1.00
H2       1.09937    0.29693    0.51747   1.00
H2       1.18602    0.47587    0.31863   1.00
H2       1.22761    0.44747    0.29830   1.00
C5       1.17417    0.41354    0.30891   1.00
H2       1.45116    0.59773    0.67480   1.00
H2       1.41571    0.59661    0.71592   1.00
H2       1.46374    0.57173    0.72080   1.00
H2       1.26820    0.68922    0.37301   1.00
H2       1.27229    0.73844    0.39559   1.00
H2       1.31621    0.70677    0.39136   1.00
H2       1.03889    0.31797    0.58224   1.00
H2       1.03336    0.27275    0.55267   1.00
H2       1.07819    0.28049    0.58233   1.00
H2       1.14307    0.42217    0.31693   1.00
H2       1.17598    0.40775    0.27621   1.00
H2       1.18266    0.38601    0.32553   1.00
C5       0.87431    0.11782    0.51659   1.00
H2       0.88061    0.10255    0.48872   1.00
H2       0.85078    0.13910    0.50991   1.00
C5       0.86028    0.08806    0.54718   1.00
C5       0.81668    0.07877    0.54159   1.00
H2       0.86485    0.09985    0.57710   1.00
O3       0.99714    0.27000    0.57076   1.00
C4       1.00023    0.22900    0.49965   1.00
C3c      0.96537    0.20757    0.49756   1.00
H1       0.93778    0.22275    0.49579   1.00
C3d      1.03591    0.20865    0.50137   1.00
C3       0.96542    0.16646    0.49827   1.00
O2       0.93070    0.14752    0.49133   1.00
C3       1.03602    0.16773    0.50284   1.00
H1       1.06400    0.15343    0.50556   1.00
C2       1.00101    0.14561    0.50118   1.00
C5       1.03355    0.27121    0.59000   1.00
H2       1.04281    0.30162    0.59689   1.00
H2       1.05682    0.25734    0.57192   1.00
C5       1.02940    0.24871    0.62815   1.00
H2       1.01909    0.21863    0.62133   1.00
H2       1.00636    0.26302    0.64610   1.00
C5       1.06838    0.24738    0.65044   1.00
H2       1.07899    0.27732    0.65710   1.00
H2       1.09104    0.23189    0.63309   1.00
C5       1.06311    0.22555    0.68935   1.00
C5       1.08599    0.23895    0.46968   1.00
C5       0.91183    0.13930    0.52709   1.00
H2       1.06594    0.25912    0.45405   1.00
H2       1.09129    0.21288    0.45091   1.00
H2       0.90497    0.16700    0.54277   1.00
H2       0.93017    0.12105    0.54700   1.00
H2       0.87615    0.05970    0.54424   1.00
H2       1.11946    0.30753    0.43379   1.00
H2       1.13937    0.26237    0.41435   1.00
C2       1.00172    0.35395    0.50205   1.00
C3       1.00120    0.33403    0.46599   1.00
O2       1.01088    0.35326    0.43198   1.00
C3       0.99979    0.33174    0.53681   1.00
H1       0.99912    0.34615    0.56485   1.00
C3a      0.99981    0.29287    0.46545   1.00
H1       1.00168    0.27798    0.43769   1.00
C3b      0.99968    0.29078    0.53619   1.00
C4       0.99977    0.27100    0.50035   1.00
O3       1.07081    0.22833    0.50645   1.00
C5       0.97686    0.36280    0.41084   1.00
H2       0.95987    0.33609    0.40310   1.00
C5       0.98998    0.38326    0.37358   1.00
H2       0.95771    0.38274    0.42797   1.00
H2       0.99964    0.36068    0.35230   1.00
H2       1.01626    0.40093    0.38091   1.00
C5       0.95799    0.40918    0.35562   1.00
H2       0.93097    0.39176    0.35137   1.00
C5       0.97111    0.42547    0.31587   1.00
H2       0.95149    0.43493    0.37459   1.00
C5       1.12464    0.25983    0.47667   1.00
H2       1.14668    0.23785    0.48604   1.00
H2       1.12072    0.28048    0.50148   1.00
C5       1.13865    0.28200    0.44020   1.00
C5       1.18019    0.29775    0.44687   1.00
H2       0.81307    0.05714    0.51659   1.00
C5       0.80022    0.06088    0.57937   1.00
H2       0.80020    0.10677    0.53449   1.00
C5       1.10340    0.21663    0.70710   1.00
H2       1.04566    0.24449    0.71040   1.00
H2       1.04682    0.19707    0.68396   1.00
C5       0.93620    0.44503    0.29544   1.00
H2       0.99523    0.44789    0.32049   1.00
H2       0.98253    0.40063    0.29693   1.00
H2       1.18137    0.31398    0.47587   1.00
H2       1.20170    0.27239    0.44747   1.00
C5       1.19109    0.32583    0.41354   1.00
H2       0.82520    0.04884    0.59773   1.00
H2       0.78408    0.08429    0.59661   1.00
H2       0.77920    0.03626    0.57173   1.00
H2       1.12699    0.23180    0.68922   1.00
H2       1.10441    0.22771    0.73844   1.00
H2       1.10864    0.18379    0.70677   1.00
H2       0.91776    0.46111    0.31797   1.00
H2       0.94733    0.46664    0.27275   1.00
H2       0.91767    0.42181    0.28049   1.00
H2       1.18307    0.35693    0.42217   1.00
H2       1.22379    0.32402    0.40775   1.00
H2       1.17447    0.31734    0.38601   1.00
C5       1.01659    0.37431    0.11782   1.00
H2       0.98872    0.38061    0.10255   1.00
H2       1.00991    0.35078    0.13910   1.00
C5       1.04718    0.36028    0.08806   1.00
C5       1.04159    0.31668    0.07877   1.00
H2       1.07710    0.36485    0.09985   1.00
O3       1.07076    0.49714    0.27000   1.00
C4       0.99965    0.50023    0.22900   1.00
C3c      0.99756    0.46537    0.20757   1.00
H1       0.99579    0.43778    0.22275   1.00
C3d      1.00137    0.53591    0.20865   1.00
C3       0.99827    0.46542    0.16646   1.00
O2       0.99133    0.43070    0.14752   1.00
C3       1.00284    0.53602    0.16773   1.00
H1       1.00556    0.56400    0.15343   1.00
C2       1.00118    0.50101    0.14561   1.00
C5       1.09000    0.53355    0.27121   1.00
H2       1.09689    0.54281    0.30162   1.00
H2       1.07192    0.55682    0.25734   1.00
C5       1.12815    0.52940    0.24871   1.00
H2       1.12133    0.51909    0.21863   1.00
H2       1.14610    0.50636    0.26302   1.00
C5       1.15044    0.56838    0.24738   1.00
H2       1.15710    0.57899    0.27732   1.00
H2       1.13309    0.59104    0.23189   1.00
C5       1.18935    0.56311    0.22555   1.00
C5       0.96968    0.58599    0.23895   1.00
C5       1.02709    0.41183    0.13930   1.00
H2       0.95405    0.56594    0.25912   1.00
H2       0.95091    0.59129    0.21288   1.00
H2       1.04277    0.40497    0.16700   1.00
H2       1.04700    0.43017    0.12105   1.00
H2       1.04424    0.37615    0.05970   1.00
H2       0.93379    0.61946    0.30753   1.00
H2       0.91435    0.63937    0.26237   1.00
C2       1.00205    0.50172    0.35395   1.00
C3       0.96599    0.50120    0.33403   1.00
O2       0.93198    0.51088    0.35326   1.00
C3       1.03681    0.49979    0.33174   1.00
H1       1.06485    0.49912    0.34615   1.00
C3a      0.96545    0.49981    0.29287   1.00
H1       0.93769    0.50168    0.27798   1.00
C3b      1.03619    0.49968    0.29078   1.00
C4       1.00035    0.49977    0.27100   1.00
O3       1.00645    0.57081    0.22833   1.00
C5       0.91084    0.47686    0.36280   1.00
H2       0.90310    0.45987    0.33609   1.00
C5       0.87358    0.48998    0.38326   1.00
H2       0.92797    0.45771    0.38274   1.00
H2       0.85230    0.49964    0.36068   1.00
H2       0.88091    0.51626    0.40093   1.00
C5       0.85562    0.45799    0.40918   1.00
H2       0.85137    0.43097    0.39176   1.00
C5       0.81587    0.47111    0.42547   1.00
H2       0.87459    0.45149    0.43493   1.00
C5       0.97667    0.62464    0.25983   1.00
H2       0.98604    0.64668    0.23785   1.00
H2       1.00148    0.62072    0.28048   1.00
C5       0.94020    0.63865    0.28200   1.00
C5       0.94687    0.68019    0.29775   1.00
H2       1.01659    0.31307    0.05714   1.00
C5       1.07937    0.30022    0.06088   1.00
H2       1.03449    0.30020    0.10677   1.00
C5       1.20710    0.60340    0.21663   1.00
H2       1.21040    0.54566    0.24449   1.00
H2       1.18396    0.54682    0.19707   1.00
C5       0.79544    0.43620    0.44503   1.00
H2       0.82049    0.49523    0.44789   1.00
H2       0.79693    0.48253    0.40063   1.00
H2       0.97587    0.68137    0.31398   1.00
H2       0.94747    0.70170    0.27239   1.00
C5       0.91354    0.69109    0.32583   1.00
H2       1.09773    0.32520    0.04884   1.00
H2       1.09661    0.28408    0.08429   1.00
H2       1.07173    0.27920    0.03626   1.00
H2       1.18922    0.62699    0.23180   1.00
H2       1.23844    0.60441    0.22771   1.00
H2       1.20677    0.60864    0.18379   1.00
H2       0.81797    0.41776    0.46111   1.00
H2       0.77275    0.44733    0.46664   1.00
H2       0.78049    0.41767    0.42181   1.00
H2       0.92217    0.68307    0.35693   1.00
H2       0.90775    0.72379    0.32402   1.00
H2       0.88601    0.67447    0.31734   1.00
