data_IRMOF10_SG202_interpen_Ligand11lp_label_y.

_audit_creation_method             'generated by an auxiliary program of Tobunporous'

_symmetry_space_group_name_H-M     'P 1'
_symmetry_Int_Tables_number        1
_symmetry_cell_setting             triclinic

_cell_length_a                    34.2800
_cell_length_b                    34.2800
_cell_length_c                    34.2800
_cell_angle_alpha                 90.0000
_cell_angle_beta                  90.0000
_cell_angle_gamma                 90.0000

loop_
_atom_site_label
_atom_site_fract_x
_atom_site_fract_y
_atom_site_fract_z
_atom_site_occupancy
O1       0.75000    0.75000    0.75000   1.00
Zn1      0.71720    0.78280    0.78280   1.00
Zn1      0.78280    0.71720    0.78280   1.00
Zn1      0.78280    0.78280    0.71720   1.00
Zn1      0.71720    0.71720    0.71720   1.00
O2       0.72650    0.77350    0.83820   1.00
O2       0.72650    0.83820    0.77350   1.00
O2       0.66180    0.77350    0.77350   1.00
O2       0.77350    0.72650    0.83820   1.00
O2       0.83820    0.72650    0.77350   1.00
O2       0.77350    0.66180    0.77350   1.00
O2       0.77350    0.83820    0.72650   1.00
O2       0.83820    0.77350    0.72650   1.00
O2       0.77350    0.77350    0.66180   1.00
O2       0.66180    0.72650    0.72650   1.00
O2       0.72650    0.66180    0.72650   1.00
O2       0.72650    0.72650    0.66180   1.00
C1       0.75000    0.75000    0.85520   1.00
C1       0.75000    0.85520    0.75000   1.00
C1       0.64480    0.75000    0.75000   1.00
C1       0.85520    0.75000    0.75000   1.00
C1       0.75000    0.64480    0.75000   1.00
C1       0.75000    0.75000    0.64480   1.00
O1       0.25000    0.25000    0.75000   1.00
Zn1      0.21720    0.28280    0.78280   1.00
Zn1      0.28280    0.21720    0.78280   1.00
Zn1      0.28280    0.28280    0.71720   1.00
Zn1      0.21720    0.21720    0.71720   1.00
O2       0.22650    0.27350    0.83820   1.00
O2       0.22650    0.33820    0.77350   1.00
O2       0.16180    0.27350    0.77350   1.00
O2       0.27350    0.22650    0.83820   1.00
O2       0.33820    0.22650    0.77350   1.00
O2       0.27350    0.16180    0.77350   1.00
O2       0.27350    0.33820    0.72650   1.00
O2       0.33820    0.27350    0.72650   1.00
O2       0.27350    0.27350    0.66180   1.00
O2       0.16180    0.22650    0.72650   1.00
O2       0.22650    0.16180    0.72650   1.00
O2       0.22650    0.22650    0.66180   1.00
C1       0.25000    0.25000    0.85520   1.00
C1       0.25000    0.35520    0.75000   1.00
C1       0.14480    0.25000    0.75000   1.00
C1       0.35520    0.25000    0.75000   1.00
C1       0.25000    0.14480    0.75000   1.00
C1       0.25000    0.25000    0.64480   1.00
O1       0.25000    0.75000    0.25000   1.00
Zn1      0.21720    0.78280    0.28280   1.00
Zn1      0.28280    0.71720    0.28280   1.00
Zn1      0.28280    0.78280    0.21720   1.00
Zn1      0.21720    0.71720    0.21720   1.00
O2       0.22650    0.77350    0.33820   1.00
O2       0.22650    0.83820    0.27350   1.00
O2       0.16180    0.77350    0.27350   1.00
O2       0.27350    0.72650    0.33820   1.00
O2       0.33820    0.72650    0.27350   1.00
O2       0.27350    0.66180    0.27350   1.00
O2       0.27350    0.83820    0.22650   1.00
O2       0.33820    0.77350    0.22650   1.00
O2       0.27350    0.77350    0.16180   1.00
O2       0.16180    0.72650    0.22650   1.00
O2       0.22650    0.66180    0.22650   1.00
O2       0.22650    0.72650    0.16180   1.00
C1       0.25000    0.75000    0.35520   1.00
C1       0.25000    0.85520    0.25000   1.00
C1       0.14480    0.75000    0.25000   1.00
C1       0.35520    0.75000    0.25000   1.00
C1       0.25000    0.64480    0.25000   1.00
C1       0.25000    0.75000    0.14480   1.00
O1       0.75000    0.25000    0.25000   1.00
Zn1      0.71720    0.28280    0.28280   1.00
Zn1      0.78280    0.21720    0.28280   1.00
Zn1      0.78280    0.28280    0.21720   1.00
Zn1      0.71720    0.21720    0.21720   1.00
O2       0.72650    0.27350    0.33820   1.00
O2       0.72650    0.33820    0.27350   1.00
O2       0.66180    0.27350    0.27350   1.00
O2       0.77350    0.22650    0.33820   1.00
O2       0.83820    0.22650    0.27350   1.00
O2       0.77350    0.16180    0.27350   1.00
O2       0.77350    0.33820    0.22650   1.00
O2       0.83820    0.27350    0.22650   1.00
O2       0.77350    0.27350    0.16180   1.00
O2       0.66180    0.22650    0.22650   1.00
O2       0.72650    0.16180    0.22650   1.00
O2       0.72650    0.22650    0.16180   1.00
C1       0.75000    0.25000    0.35520   1.00
C1       0.75000    0.35520    0.25000   1.00
C1       0.64480    0.25000    0.25000   1.00
C1       0.85520    0.25000    0.25000   1.00
C1       0.75000    0.14480    0.25000   1.00
C1       0.75000    0.25000    0.14480   1.00
O1       0.25000    0.25000    0.25000   1.00
Zn1      0.28280    0.21720    0.21720   1.00
Zn1      0.21720    0.28280    0.21720   1.00
Zn1      0.21720    0.21720    0.28280   1.00
Zn1      0.28280    0.28280    0.28280   1.00
O2       0.27350    0.22650    0.16180   1.00
O2       0.27350    0.16180    0.22650   1.00
O2       0.33820    0.22650    0.22650   1.00
O2       0.22650    0.27350    0.16180   1.00
O2       0.16180    0.27350    0.22650   1.00
O2       0.22650    0.33820    0.22650   1.00
O2       0.22650    0.16180    0.27350   1.00
O2       0.16180    0.22650    0.27350   1.00
O2       0.22650    0.22650    0.33820   1.00
O2       0.33820    0.27350    0.27350   1.00
O2       0.27350    0.33820    0.27350   1.00
O2       0.27350    0.27350    0.33820   1.00
C1       0.25000    0.25000    0.14480   1.00
C1       0.25000    0.14480    0.25000   1.00
C1       0.35520    0.25000    0.25000   1.00
C1       0.14480    0.25000    0.25000   1.00
C1       0.25000    0.35520    0.25000   1.00
C1       0.25000    0.25000    0.35520   1.00
O1       0.75000    0.75000    0.25000   1.00
Zn1      0.78280    0.71720    0.21720   1.00
Zn1      0.71720    0.78280    0.21720   1.00
Zn1      0.71720    0.71720    0.28280   1.00
Zn1      0.78280    0.78280    0.28280   1.00
O2       0.77350    0.72650    0.16180   1.00
O2       0.77350    0.66180    0.22650   1.00
O2       0.83820    0.72650    0.22650   1.00
O2       0.72650    0.77350    0.16180   1.00
O2       0.66180    0.77350    0.22650   1.00
O2       0.72650    0.83820    0.22650   1.00
O2       0.72650    0.66180    0.27350   1.00
O2       0.66180    0.72650    0.27350   1.00
O2       0.72650    0.72650    0.33820   1.00
O2       0.83820    0.77350    0.27350   1.00
O2       0.77350    0.83820    0.27350   1.00
O2       0.77350    0.77350    0.33820   1.00
C1       0.75000    0.75000    0.14480   1.00
C1       0.75000    0.64480    0.25000   1.00
C1       0.85520    0.75000    0.25000   1.00
C1       0.64480    0.75000    0.25000   1.00
C1       0.75000    0.85520    0.25000   1.00
C1       0.75000    0.75000    0.35520   1.00
O1       0.75000    0.25000    0.75000   1.00
Zn1      0.78280    0.21720    0.71720   1.00
Zn1      0.71720    0.28280    0.71720   1.00
Zn1      0.71720    0.21720    0.78280   1.00
Zn1      0.78280    0.28280    0.78280   1.00
O2       0.77350    0.22650    0.66180   1.00
O2       0.77350    0.16180    0.72650   1.00
O2       0.83820    0.22650    0.72650   1.00
O2       0.72650    0.27350    0.66180   1.00
O2       0.66180    0.27350    0.72650   1.00
O2       0.72650    0.33820    0.72650   1.00
O2       0.72650    0.16180    0.77350   1.00
O2       0.66180    0.22650    0.77350   1.00
O2       0.72650    0.22650    0.83820   1.00
O2       0.83820    0.27350    0.77350   1.00
O2       0.77350    0.33820    0.77350   1.00
O2       0.77350    0.27350    0.83820   1.00
C1       0.75000    0.25000    0.64480   1.00
C1       0.75000    0.14480    0.75000   1.00
C1       0.85520    0.25000    0.75000   1.00
C1       0.64480    0.25000    0.75000   1.00
C1       0.75000    0.35520    0.75000   1.00
C1       0.75000    0.25000    0.85520   1.00
O1       0.25000    0.75000    0.75000   1.00
Zn1      0.28280    0.71720    0.71720   1.00
Zn1      0.21720    0.78280    0.71720   1.00
Zn1      0.21720    0.71720    0.78280   1.00
Zn1      0.28280    0.78280    0.78280   1.00
O2       0.27350    0.72650    0.66180   1.00
O2       0.27350    0.66180    0.72650   1.00
O2       0.33820    0.72650    0.72650   1.00
O2       0.22650    0.77350    0.66180   1.00
O2       0.16180    0.77350    0.72650   1.00
O2       0.22650    0.83820    0.72650   1.00
O2       0.22650    0.66180    0.77350   1.00
O2       0.16180    0.72650    0.77350   1.00
O2       0.22650    0.72650    0.83820   1.00
O2       0.33820    0.77350    0.77350   1.00
O2       0.27350    0.83820    0.77350   1.00
O2       0.27350    0.77350    0.83820   1.00
C1       0.25000    0.75000    0.64480   1.00
C1       0.25000    0.64480    0.75000   1.00
C1       0.35520    0.75000    0.75000   1.00
C1       0.14480    0.75000    0.75000   1.00
C1       0.25000    0.85520    0.75000   1.00
C1       0.25000    0.75000    0.85520   1.00
O1       1.00000    1.00000    1.00000   1.00
Zn1      0.96720    1.03280    1.03280   1.00
Zn1      1.03280    0.96720    1.03280   1.00
Zn1      1.03280    1.03280    0.96720   1.00
Zn1      0.96720    0.96720    0.96720   1.00
O2       0.97650    1.02350    1.08820   1.00
O2       0.97650    1.08820    1.02350   1.00
O2       0.91180    1.02350    1.02350   1.00
O2       1.02350    0.97650    1.08820   1.00
O2       1.08820    0.97650    1.02350   1.00
O2       1.02350    0.91180    1.02350   1.00
O2       1.02350    1.08820    0.97650   1.00
O2       1.08820    1.02350    0.97650   1.00
O2       1.02350    1.02350    0.91180   1.00
O2       0.91180    0.97650    0.97650   1.00
O2       0.97650    0.91180    0.97650   1.00
O2       0.97650    0.97650    0.91180   1.00
C1       1.00000    1.00000    1.10520   1.00
C1       1.00000    1.10520    1.00000   1.00
C1       0.89480    1.00000    1.00000   1.00
C1       1.10520    1.00000    1.00000   1.00
C1       1.00000    0.89480    1.00000   1.00
C1       1.00000    1.00000    0.89480   1.00
O1       0.50000    0.50000    1.00000   1.00
Zn1      0.46720    0.53280    1.03280   1.00
Zn1      0.53280    0.46720    1.03280   1.00
Zn1      0.53280    0.53280    0.96720   1.00
Zn1      0.46720    0.46720    0.96720   1.00
O2       0.47650    0.52350    1.08820   1.00
O2       0.47650    0.58820    1.02350   1.00
O2       0.41180    0.52350    1.02350   1.00
O2       0.52350    0.47650    1.08820   1.00
O2       0.58820    0.47650    1.02350   1.00
O2       0.52350    0.41180    1.02350   1.00
O2       0.52350    0.58820    0.97650   1.00
O2       0.58820    0.52350    0.97650   1.00
O2       0.52350    0.52350    0.91180   1.00
O2       0.41180    0.47650    0.97650   1.00
O2       0.47650    0.41180    0.97650   1.00
O2       0.47650    0.47650    0.91180   1.00
C1       0.50000    0.50000    1.10520   1.00
C1       0.50000    0.60520    1.00000   1.00
C1       0.39480    0.50000    1.00000   1.00
C1       0.60520    0.50000    1.00000   1.00
C1       0.50000    0.39480    1.00000   1.00
C1       0.50000    0.50000    0.89480   1.00
O1       0.50000    1.00000    0.50000   1.00
Zn1      0.46720    1.03280    0.53280   1.00
Zn1      0.53280    0.96720    0.53280   1.00
Zn1      0.53280    1.03280    0.46720   1.00
Zn1      0.46720    0.96720    0.46720   1.00
O2       0.47650    1.02350    0.58820   1.00
O2       0.47650    1.08820    0.52350   1.00
O2       0.41180    1.02350    0.52350   1.00
O2       0.52350    0.97650    0.58820   1.00
O2       0.58820    0.97650    0.52350   1.00
O2       0.52350    0.91180    0.52350   1.00
O2       0.52350    1.08820    0.47650   1.00
O2       0.58820    1.02350    0.47650   1.00
O2       0.52350    1.02350    0.41180   1.00
O2       0.41180    0.97650    0.47650   1.00
O2       0.47650    0.91180    0.47650   1.00
O2       0.47650    0.97650    0.41180   1.00
C1       0.50000    1.00000    0.60520   1.00
C1       0.50000    1.10520    0.50000   1.00
C1       0.39480    1.00000    0.50000   1.00
C1       0.60520    1.00000    0.50000   1.00
C1       0.50000    0.89480    0.50000   1.00
C1       0.50000    1.00000    0.39480   1.00
O1       1.00000    0.50000    0.50000   1.00
Zn1      0.96720    0.53280    0.53280   1.00
Zn1      1.03280    0.46720    0.53280   1.00
Zn1      1.03280    0.53280    0.46720   1.00
Zn1      0.96720    0.46720    0.46720   1.00
O2       0.97650    0.52350    0.58820   1.00
O2       0.97650    0.58820    0.52350   1.00
O2       0.91180    0.52350    0.52350   1.00
O2       1.02350    0.47650    0.58820   1.00
O2       1.08820    0.47650    0.52350   1.00
O2       1.02350    0.41180    0.52350   1.00
O2       1.02350    0.58820    0.47650   1.00
O2       1.08820    0.52350    0.47650   1.00
O2       1.02350    0.52350    0.41180   1.00
O2       0.91180    0.47650    0.47650   1.00
O2       0.97650    0.41180    0.47650   1.00
O2       0.97650    0.47650    0.41180   1.00
C1       1.00000    0.50000    0.60520   1.00
C1       1.00000    0.60520    0.50000   1.00
C1       0.89480    0.50000    0.50000   1.00
C1       1.10520    0.50000    0.50000   1.00
C1       1.00000    0.39480    0.50000   1.00
C1       1.00000    0.50000    0.39480   1.00
O1       0.50000    0.50000    0.50000   1.00
Zn1      0.53280    0.46720    0.46720   1.00
Zn1      0.46720    0.53280    0.46720   1.00
Zn1      0.46720    0.46720    0.53280   1.00
Zn1      0.53280    0.53280    0.53280   1.00
O2       0.52350    0.47650    0.41180   1.00
O2       0.52350    0.41180    0.47650   1.00
O2       0.58820    0.47650    0.47650   1.00
O2       0.47650    0.52350    0.41180   1.00
O2       0.41180    0.52350    0.47650   1.00
O2       0.47650    0.58820    0.47650   1.00
O2       0.47650    0.41180    0.52350   1.00
O2       0.41180    0.47650    0.52350   1.00
O2       0.47650    0.47650    0.58820   1.00
O2       0.58820    0.52350    0.52350   1.00
O2       0.52350    0.58820    0.52350   1.00
O2       0.52350    0.52350    0.58820   1.00
C1       0.50000    0.50000    0.39480   1.00
C1       0.50000    0.39480    0.50000   1.00
C1       0.60520    0.50000    0.50000   1.00
C1       0.39480    0.50000    0.50000   1.00
C1       0.50000    0.60520    0.50000   1.00
C1       0.50000    0.50000    0.60520   1.00
O1       1.00000    1.00000    0.50000   1.00
Zn1      1.03280    0.96720    0.46720   1.00
Zn1      0.96720    1.03280    0.46720   1.00
Zn1      0.96720    0.96720    0.53280   1.00
Zn1      1.03280    1.03280    0.53280   1.00
O2       1.02350    0.97650    0.41180   1.00
O2       1.02350    0.91180    0.47650   1.00
O2       1.08820    0.97650    0.47650   1.00
O2       0.97650    1.02350    0.41180   1.00
O2       0.91180    1.02350    0.47650   1.00
O2       0.97650    1.08820    0.47650   1.00
O2       0.97650    0.91180    0.52350   1.00
O2       0.91180    0.97650    0.52350   1.00
O2       0.97650    0.97650    0.58820   1.00
O2       1.08820    1.02350    0.52350   1.00
O2       1.02350    1.08820    0.52350   1.00
O2       1.02350    1.02350    0.58820   1.00
C1       1.00000    1.00000    0.39480   1.00
C1       1.00000    0.89480    0.50000   1.00
C1       1.10520    1.00000    0.50000   1.00
C1       0.89480    1.00000    0.50000   1.00
C1       1.00000    1.10520    0.50000   1.00
C1       1.00000    1.00000    0.60520   1.00
O1       1.00000    0.50000    1.00000   1.00
Zn1      1.03280    0.46720    0.96720   1.00
Zn1      0.96720    0.53280    0.96720   1.00
Zn1      0.96720    0.46720    1.03280   1.00
Zn1      1.03280    0.53280    1.03280   1.00
O2       1.02350    0.47650    0.91180   1.00
O2       1.02350    0.41180    0.97650   1.00
O2       1.08820    0.47650    0.97650   1.00
O2       0.97650    0.52350    0.91180   1.00
O2       0.91180    0.52350    0.97650   1.00
O2       0.97650    0.58820    0.97650   1.00
O2       0.97650    0.41180    1.02350   1.00
O2       0.91180    0.47650    1.02350   1.00
O2       0.97650    0.47650    1.08820   1.00
O2       1.08820    0.52350    1.02350   1.00
O2       1.02350    0.58820    1.02350   1.00
O2       1.02350    0.52350    1.08820   1.00
C1       1.00000    0.50000    0.89480   1.00
C1       1.00000    0.39480    1.00000   1.00
C1       1.10520    0.50000    1.00000   1.00
C1       0.89480    0.50000    1.00000   1.00
C1       1.00000    0.60520    1.00000   1.00
C1       1.00000    0.50000    1.10520   1.00
O1       0.50000    1.00000    1.00000   1.00
Zn1      0.53280    0.96720    0.96720   1.00
Zn1      0.46720    1.03280    0.96720   1.00
Zn1      0.46720    0.96720    1.03280   1.00
Zn1      0.53280    1.03280    1.03280   1.00
O2       0.52350    0.97650    0.91180   1.00
O2       0.52350    0.91180    0.97650   1.00
O2       0.58820    0.97650    0.97650   1.00
O2       0.47650    1.02350    0.91180   1.00
O2       0.41180    1.02350    0.97650   1.00
O2       0.47650    1.08820    0.97650   1.00
O2       0.47650    0.91180    1.02350   1.00
O2       0.41180    0.97650    1.02350   1.00
O2       0.47650    0.97650    1.08820   1.00
O2       0.58820    1.02350    1.02350   1.00
O2       0.52350    1.08820    1.02350   1.00
O2       0.52350    1.02350    1.08820   1.00
C1       0.50000    1.00000    0.89480   1.00
C1       0.50000    0.89480    1.00000   1.00
C1       0.60520    1.00000    1.00000   1.00
C1       0.39480    1.00000    1.00000   1.00
C1       0.50000    1.10520    1.00000   1.00
C1       0.50000    1.00000    1.10520   1.00
C4       0.75003    0.75020    0.97915   1.00
C4       0.74997    0.74980    1.02085   1.00
C3a      0.73163    0.78065    0.95746   1.00
C3       0.77630    0.77306    1.04232   1.00
C3       0.76852    0.72033    0.95768   1.00
C3a      0.72356    0.72597    1.04254   1.00
C2       0.75008    0.74999    0.89488   1.00
C2       0.75008    0.74998    1.10512   1.00
C3       0.73189    0.78002    0.91595   1.00
C3       0.77624    0.77320    1.08363   1.00
C3       0.76842    0.72021    0.91637   1.00
C3       0.72399    0.72650    1.08405   1.00
C5       0.71091    0.81396    0.97772   1.00
H1       0.79679    0.79154    1.02691   1.00
H1       0.71769    0.80312    0.89979   1.00
H1       0.79676    0.79162    1.09901   1.00
H1       0.78274    0.69664    0.90099   1.00
H1       0.70372    0.70848    1.10021   1.00
C5       0.69409    0.70006    1.02228   1.00
H1       0.78280    0.69672    0.97309   1.00
H2       0.66980    0.69308    1.04256   1.00
H2       0.68068    0.71576    0.99731   1.00
H2       0.68967    0.82767    0.95744   1.00
H2       0.69353    0.80281    1.00269   1.00
N1       0.71232    0.66395    1.00857   1.00
C6       0.72725    0.63556    1.03073   1.00
C6       0.71620    0.65256    0.97154   1.00
C6       0.74133    0.60590    1.00759   1.00
C6       0.73430    0.61670    0.96995   1.00
H3       0.72825    0.63638    1.06197   1.00
H3       0.70676    0.66941    0.94700   1.00
H3       0.75515    0.57934    1.01713   1.00
H3       0.74158    0.60028    0.94425   1.00
N1       0.73879    0.84327    0.99143   1.00
C6       0.74580    0.85305    1.02846   1.00
C6       0.76129    0.86613    0.96927   1.00
C6       0.77348    0.88215    1.03005   1.00
C6       0.78334    0.89046    0.99241   1.00
H3       0.73189    0.83965    1.05300   1.00
H3       0.76201    0.86506    0.93803   1.00
H3       0.78520    0.89577    1.05575   1.00
H3       0.80424    0.91189    0.98287   1.00
C4       0.75020    0.97915    0.75003   1.00
C4       0.74980    1.02085    0.74997   1.00
C3a      0.78065    0.95746    0.73163   1.00
C3       0.77306    1.04232    0.77630   1.00
C3       0.72033    0.95768    0.76852   1.00
C3a      0.72597    1.04254    0.72356   1.00
C2       0.74999    0.89488    0.75008   1.00
C2       0.74998    1.10512    0.75008   1.00
C3       0.78002    0.91595    0.73189   1.00
C3       0.77320    1.08363    0.77624   1.00
C3       0.72021    0.91637    0.76842   1.00
C3       0.72650    1.08405    0.72399   1.00
C5       0.81396    0.97772    0.71091   1.00
H1       0.79154    1.02691    0.79679   1.00
H1       0.80312    0.89979    0.71769   1.00
H1       0.79162    1.09901    0.79676   1.00
H1       0.69664    0.90099    0.78274   1.00
H1       0.70848    1.10021    0.70372   1.00
C5       0.70006    1.02228    0.69409   1.00
H1       0.69672    0.97309    0.78280   1.00
H2       0.69308    1.04256    0.66980   1.00
H2       0.71576    0.99731    0.68068   1.00
H2       0.82767    0.95744    0.68967   1.00
H2       0.80281    1.00269    0.69353   1.00
N1       0.66395    1.00857    0.71232   1.00
C6       0.63556    1.03073    0.72725   1.00
C6       0.65256    0.97154    0.71620   1.00
C6       0.60590    1.00759    0.74133   1.00
C6       0.61670    0.96995    0.73430   1.00
H3       0.63638    1.06197    0.72825   1.00
H3       0.66941    0.94700    0.70676   1.00
H3       0.57934    1.01713    0.75515   1.00
H3       0.60028    0.94425    0.74158   1.00
N1       0.84327    0.99143    0.73879   1.00
C6       0.85305    1.02846    0.74580   1.00
C6       0.86613    0.96927    0.76129   1.00
C6       0.88215    1.03005    0.77348   1.00
C6       0.89046    0.99241    0.78334   1.00
H3       0.83965    1.05300    0.73189   1.00
H3       0.86506    0.93803    0.76201   1.00
H3       0.89577    1.05575    0.78520   1.00
H3       0.91189    0.98287    0.80424   1.00
C4       0.52085    0.75003    0.74980   1.00
C4       0.47915    0.74997    0.75020   1.00
C3a      0.54254    0.73163    0.71935   1.00
C3       0.45768    0.77630    0.72694   1.00
C3       0.54232    0.76852    0.77967   1.00
C3a      0.45746    0.72356    0.77403   1.00
C2       0.60512    0.75008    0.75001   1.00
C2       0.39488    0.75008    0.75002   1.00
C3       0.58405    0.73189    0.71998   1.00
C3       0.41637    0.77624    0.72680   1.00
C3       0.58363    0.76842    0.77979   1.00
C3       0.41595    0.72399    0.77350   1.00
C5       0.52228    0.71091    0.68604   1.00
H1       0.47309    0.79679    0.70846   1.00
H1       0.60021    0.71769    0.69688   1.00
H1       0.40099    0.79676    0.70838   1.00
H1       0.59901    0.78274    0.80336   1.00
H1       0.39979    0.70372    0.79152   1.00
C5       0.47772    0.69409    0.79994   1.00
H1       0.52691    0.78280    0.80328   1.00
H2       0.45744    0.66980    0.80692   1.00
H2       0.50269    0.68068    0.78424   1.00
H2       0.54256    0.68967    0.67233   1.00
H2       0.49731    0.69353    0.69719   1.00
N1       0.49143    0.71232    0.83605   1.00
C6       0.46927    0.72725    0.86444   1.00
C6       0.52846    0.71620    0.84744   1.00
C6       0.49241    0.74133    0.89410   1.00
C6       0.53005    0.73430    0.88330   1.00
H3       0.43803    0.72825    0.86362   1.00
H3       0.55300    0.70676    0.83059   1.00
H3       0.48287    0.75515    0.92066   1.00
H3       0.55575    0.74158    0.89972   1.00
N1       0.50857    0.73879    0.65673   1.00
C6       0.47154    0.74580    0.64695   1.00
C6       0.53073    0.76129    0.63387   1.00
C6       0.46995    0.77348    0.61785   1.00
C6       0.50759    0.78334    0.60954   1.00
H3       0.44700    0.73189    0.66035   1.00
H3       0.56197    0.76201    0.63494   1.00
H3       0.44425    0.78520    0.60423   1.00
H3       0.51713    0.80424    0.58811   1.00
C4       0.97915    0.75003    0.75020   1.00
C4       1.02085    0.74997    0.74980   1.00
C3a      0.95746    0.73163    0.78065   1.00
C3       1.04232    0.77630    0.77306   1.00
C3       0.95768    0.76852    0.72033   1.00
C3a      1.04254    0.72356    0.72597   1.00
C2       0.89488    0.75008    0.74999   1.00
C2       1.10512    0.75008    0.74998   1.00
C3       0.91595    0.73189    0.78002   1.00
C3       1.08363    0.77624    0.77320   1.00
C3       0.91637    0.76842    0.72021   1.00
C3       1.08405    0.72399    0.72650   1.00
C5       0.97772    0.71091    0.81396   1.00
H1       1.02691    0.79679    0.79154   1.00
H1       0.89979    0.71769    0.80312   1.00
H1       1.09901    0.79676    0.79162   1.00
H1       0.90099    0.78274    0.69664   1.00
H1       1.10021    0.70372    0.70848   1.00
C5       1.02228    0.69409    0.70006   1.00
H1       0.97309    0.78280    0.69672   1.00
H2       1.04256    0.66980    0.69308   1.00
H2       0.99731    0.68068    0.71576   1.00
H2       0.95744    0.68967    0.82767   1.00
H2       1.00269    0.69353    0.80281   1.00
N1       1.00857    0.71232    0.66395   1.00
C6       1.03073    0.72725    0.63556   1.00
C6       0.97154    0.71620    0.65256   1.00
C6       1.00759    0.74133    0.60590   1.00
C6       0.96995    0.73430    0.61670   1.00
H3       1.06197    0.72825    0.63638   1.00
H3       0.94700    0.70676    0.66941   1.00
H3       1.01713    0.75515    0.57934   1.00
H3       0.94425    0.74158    0.60028   1.00
N1       0.99143    0.73879    0.84327   1.00
C6       1.02846    0.74580    0.85305   1.00
C6       0.96927    0.76129    0.86613   1.00
C6       1.03005    0.77348    0.88215   1.00
C6       0.99241    0.78334    0.89046   1.00
H3       1.05300    0.73189    0.83965   1.00
H3       0.93803    0.76201    0.86506   1.00
H3       1.05575    0.78520    0.89577   1.00
H3       0.98287    0.80424    0.91189   1.00
C4       0.74980    0.52085    0.75003   1.00
C4       0.75020    0.47915    0.74997   1.00
C3a      0.71935    0.54254    0.73163   1.00
C3       0.72694    0.45768    0.77630   1.00
C3       0.77967    0.54232    0.76852   1.00
C3a      0.77403    0.45746    0.72356   1.00
C2       0.75001    0.60512    0.75008   1.00
C2       0.75002    0.39488    0.75008   1.00
C3       0.71998    0.58405    0.73189   1.00
C3       0.72680    0.41637    0.77624   1.00
C3       0.77979    0.58363    0.76842   1.00
C3       0.77350    0.41595    0.72399   1.00
C5       0.68604    0.52228    0.71091   1.00
H1       0.70846    0.47309    0.79679   1.00
H1       0.69688    0.60021    0.71769   1.00
H1       0.70838    0.40099    0.79676   1.00
H1       0.80336    0.59901    0.78274   1.00
H1       0.79152    0.39979    0.70372   1.00
C5       0.79994    0.47772    0.69409   1.00
H1       0.80328    0.52691    0.78280   1.00
H2       0.80692    0.45744    0.66980   1.00
H2       0.78424    0.50269    0.68068   1.00
H2       0.67233    0.54256    0.68967   1.00
H2       0.69719    0.49731    0.69353   1.00
N1       0.83605    0.49143    0.71232   1.00
C6       0.86444    0.46927    0.72725   1.00
C6       0.84744    0.52846    0.71620   1.00
C6       0.89410    0.49241    0.74133   1.00
C6       0.88330    0.53005    0.73430   1.00
H3       0.86362    0.43803    0.72825   1.00
H3       0.83059    0.55300    0.70676   1.00
H3       0.92066    0.48287    0.75515   1.00
H3       0.89972    0.55575    0.74158   1.00
N1       0.65673    0.50857    0.73879   1.00
C6       0.64695    0.47154    0.74580   1.00
C6       0.63387    0.53073    0.76129   1.00
C6       0.61785    0.46995    0.77348   1.00
C6       0.60954    0.50759    0.78334   1.00
H3       0.66035    0.44700    0.73189   1.00
H3       0.63494    0.56197    0.76201   1.00
H3       0.60423    0.44425    0.78520   1.00
H3       0.58811    0.51713    0.80424   1.00
C4       0.75003    0.74980    0.52085   1.00
C4       0.74997    0.75020    0.47915   1.00
C3a      0.73163    0.71935    0.54254   1.00
C3       0.77630    0.72694    0.45768   1.00
C3       0.76852    0.77967    0.54232   1.00
C3a      0.72356    0.77403    0.45746   1.00
C2       0.75008    0.75001    0.60512   1.00
C2       0.75008    0.75002    0.39488   1.00
C3       0.73189    0.71998    0.58405   1.00
C3       0.77624    0.72680    0.41637   1.00
C3       0.76842    0.77979    0.58363   1.00
C3       0.72399    0.77350    0.41595   1.00
C5       0.71091    0.68604    0.52228   1.00
H1       0.79679    0.70846    0.47309   1.00
H1       0.71769    0.69688    0.60021   1.00
H1       0.79676    0.70838    0.40099   1.00
H1       0.78274    0.80336    0.59901   1.00
H1       0.70372    0.79152    0.39979   1.00
C5       0.69409    0.79994    0.47772   1.00
H1       0.78280    0.80328    0.52691   1.00
H2       0.66980    0.80692    0.45744   1.00
H2       0.68068    0.78424    0.50269   1.00
H2       0.68967    0.67233    0.54256   1.00
H2       0.69353    0.69719    0.49731   1.00
N1       0.71232    0.83605    0.49143   1.00
C6       0.72725    0.86444    0.46927   1.00
C6       0.71620    0.84744    0.52846   1.00
C6       0.74133    0.89410    0.49241   1.00
C6       0.73430    0.88330    0.53005   1.00
H3       0.72825    0.86362    0.43803   1.00
H3       0.70676    0.83059    0.55300   1.00
H3       0.75515    0.92066    0.48287   1.00
H3       0.74158    0.89972    0.55575   1.00
N1       0.73879    0.65673    0.50857   1.00
C6       0.74580    0.64695    0.47154   1.00
C6       0.76129    0.63387    0.53073   1.00
C6       0.77348    0.61785    0.46995   1.00
C6       0.78334    0.60954    0.50759   1.00
H3       0.73189    0.66035    0.44700   1.00
H3       0.76201    0.63494    0.56197   1.00
H3       0.78520    0.60423    0.44425   1.00
H3       0.80424    0.58811    0.51713   1.00
C4       0.25003    0.25020    0.97915   1.00
C4       0.24997    0.24980    1.02085   1.00
C3a      0.23163    0.28065    0.95746   1.00
C3       0.27630    0.27306    1.04232   1.00
C3       0.26852    0.22033    0.95768   1.00
C3a      0.22356    0.22597    1.04254   1.00
C2       0.25008    0.24999    0.89488   1.00
C2       0.25008    0.24998    1.10512   1.00
C3       0.23189    0.28002    0.91595   1.00
C3       0.27624    0.27320    1.08363   1.00
C3       0.26842    0.22021    0.91637   1.00
C3       0.22399    0.22650    1.08405   1.00
C5       0.21091    0.31396    0.97772   1.00
H1       0.29679    0.29154    1.02691   1.00
H1       0.21769    0.30312    0.89979   1.00
H1       0.29676    0.29162    1.09901   1.00
H1       0.28274    0.19664    0.90099   1.00
H1       0.20372    0.20848    1.10021   1.00
C5       0.19409    0.20006    1.02228   1.00
H1       0.28280    0.19672    0.97309   1.00
H2       0.16980    0.19308    1.04256   1.00
H2       0.18068    0.21576    0.99731   1.00
H2       0.18967    0.32767    0.95744   1.00
H2       0.19353    0.30281    1.00269   1.00
N1       0.21232    0.16395    1.00857   1.00
C6       0.22725    0.13556    1.03073   1.00
C6       0.21620    0.15256    0.97154   1.00
C6       0.24133    0.10590    1.00759   1.00
C6       0.23430    0.11670    0.96995   1.00
H3       0.22825    0.13638    1.06197   1.00
H3       0.20676    0.16941    0.94700   1.00
H3       0.25515    0.07934    1.01713   1.00
H3       0.24158    0.10028    0.94425   1.00
N1       0.23879    0.34327    0.99143   1.00
C6       0.24580    0.35305    1.02846   1.00
C6       0.26129    0.36613    0.96927   1.00
C6       0.27348    0.38215    1.03005   1.00
C6       0.28334    0.39046    0.99241   1.00
H3       0.23189    0.33965    1.05300   1.00
H3       0.26201    0.36506    0.93803   1.00
H3       0.28520    0.39577    1.05575   1.00
H3       0.30424    0.41189    0.98287   1.00
C4       0.25020    0.47915    0.75003   1.00
C4       0.24980    0.52085    0.74997   1.00
C3a      0.28065    0.45746    0.73163   1.00
C3       0.27306    0.54232    0.77630   1.00
C3       0.22033    0.45768    0.76852   1.00
C3a      0.22597    0.54254    0.72356   1.00
C2       0.24999    0.39488    0.75008   1.00
C2       0.24998    0.60512    0.75008   1.00
C3       0.28002    0.41595    0.73189   1.00
C3       0.27320    0.58363    0.77624   1.00
C3       0.22021    0.41637    0.76842   1.00
C3       0.22650    0.58405    0.72399   1.00
C5       0.31396    0.47772    0.71091   1.00
H1       0.29154    0.52691    0.79679   1.00
H1       0.30312    0.39979    0.71769   1.00
H1       0.29162    0.59901    0.79676   1.00
H1       0.19664    0.40099    0.78274   1.00
H1       0.20848    0.60021    0.70372   1.00
C5       0.20006    0.52228    0.69409   1.00
H1       0.19672    0.47309    0.78280   1.00
H2       0.19308    0.54256    0.66980   1.00
H2       0.21576    0.49731    0.68068   1.00
H2       0.32767    0.45744    0.68967   1.00
H2       0.30281    0.50269    0.69353   1.00
N1       0.16395    0.50857    0.71232   1.00
C6       0.13556    0.53073    0.72725   1.00
C6       0.15256    0.47154    0.71620   1.00
C6       0.10590    0.50759    0.74133   1.00
C6       0.11670    0.46995    0.73430   1.00
H3       0.13638    0.56197    0.72825   1.00
H3       0.16941    0.44700    0.70676   1.00
H3       0.07934    0.51713    0.75515   1.00
H3       0.10028    0.44425    0.74158   1.00
N1       0.34327    0.49143    0.73879   1.00
C6       0.35305    0.52846    0.74580   1.00
C6       0.36613    0.46927    0.76129   1.00
C6       0.38215    0.53005    0.77348   1.00
C6       0.39046    0.49241    0.78334   1.00
H3       0.33965    0.55300    0.73189   1.00
H3       0.36506    0.43803    0.76201   1.00
H3       0.39577    0.55575    0.78520   1.00
H3       0.41189    0.48287    0.80424   1.00
C4       0.02085    0.25003    0.74980   1.00
C4       -0.02085   0.24997    0.75020   1.00
C3a      0.04254    0.23163    0.71935   1.00
C3       -0.04232   0.27630    0.72694   1.00
C3       0.04232    0.26852    0.77967   1.00
C3a      -0.04254   0.22356    0.77403   1.00
C2       0.10512    0.25008    0.75001   1.00
C2       -0.10512   0.25008    0.75002   1.00
C3       0.08405    0.23189    0.71998   1.00
C3       -0.08363   0.27624    0.72680   1.00
C3       0.08363    0.26842    0.77979   1.00
C3       -0.08405   0.22399    0.77350   1.00
C5       0.02228    0.21091    0.68604   1.00
H1       -0.02691   0.29679    0.70846   1.00
H1       0.10021    0.21769    0.69688   1.00
H1       -0.09901   0.29676    0.70838   1.00
H1       0.09901    0.28274    0.80336   1.00
H1       -0.10021   0.20372    0.79152   1.00
C5       -0.02228   0.19409    0.79994   1.00
H1       0.02691    0.28280    0.80328   1.00
H2       -0.04256   0.16980    0.80692   1.00
H2       0.00269    0.18068    0.78424   1.00
H2       0.04256    0.18967    0.67233   1.00
H2       -0.00269   0.19353    0.69719   1.00
N1       -0.00857   0.21232    0.83605   1.00
C6       -0.03073   0.22725    0.86444   1.00
C6       0.02846    0.21620    0.84744   1.00
C6       -0.00759   0.24133    0.89410   1.00
C6       0.03005    0.23430    0.88330   1.00
H3       -0.06197   0.22825    0.86362   1.00
H3       0.05300    0.20676    0.83059   1.00
H3       -0.01713   0.25515    0.92066   1.00
H3       0.05575    0.24158    0.89972   1.00
N1       0.00857    0.23879    0.65673   1.00
C6       -0.02846   0.24580    0.64695   1.00
C6       0.03073    0.26129    0.63387   1.00
C6       -0.03005   0.27348    0.61785   1.00
C6       0.00759    0.28334    0.60954   1.00
H3       -0.05300   0.23189    0.66035   1.00
H3       0.06197    0.26201    0.63494   1.00
H3       -0.05575   0.28520    0.60423   1.00
H3       0.01713    0.30424    0.58811   1.00
C4       0.47915    0.25003    0.75020   1.00
C4       0.52085    0.24997    0.74980   1.00
C3a      0.45746    0.23163    0.78065   1.00
C3       0.54232    0.27630    0.77306   1.00
C3       0.45768    0.26852    0.72033   1.00
C3a      0.54254    0.22356    0.72597   1.00
C2       0.39488    0.25008    0.74999   1.00
C2       0.60512    0.25008    0.74998   1.00
C3       0.41595    0.23189    0.78002   1.00
C3       0.58363    0.27624    0.77320   1.00
C3       0.41637    0.26842    0.72021   1.00
C3       0.58405    0.22399    0.72650   1.00
C5       0.47772    0.21091    0.81396   1.00
H1       0.52691    0.29679    0.79154   1.00
H1       0.39979    0.21769    0.80312   1.00
H1       0.59901    0.29676    0.79162   1.00
H1       0.40099    0.28274    0.69664   1.00
H1       0.60021    0.20372    0.70848   1.00
C5       0.52228    0.19409    0.70006   1.00
H1       0.47309    0.28280    0.69672   1.00
H2       0.54256    0.16980    0.69308   1.00
H2       0.49731    0.18068    0.71576   1.00
H2       0.45744    0.18967    0.82767   1.00
H2       0.50269    0.19353    0.80281   1.00
N1       0.50857    0.21232    0.66395   1.00
C6       0.53073    0.22725    0.63556   1.00
C6       0.47154    0.21620    0.65256   1.00
C6       0.50759    0.24133    0.60590   1.00
C6       0.46995    0.23430    0.61670   1.00
H3       0.56197    0.22825    0.63638   1.00
H3       0.44700    0.20676    0.66941   1.00
H3       0.51713    0.25515    0.57934   1.00
H3       0.44425    0.24158    0.60028   1.00
N1       0.49143    0.23879    0.84327   1.00
C6       0.52846    0.24580    0.85305   1.00
C6       0.46927    0.26129    0.86613   1.00
C6       0.53005    0.27348    0.88215   1.00
C6       0.49241    0.28334    0.89046   1.00
H3       0.55300    0.23189    0.83965   1.00
H3       0.43803    0.26201    0.86506   1.00
H3       0.55575    0.28520    0.89577   1.00
H3       0.48287    0.30424    0.91189   1.00
C4       0.24980    0.02085    0.75003   1.00
C4       0.25020    -0.02085   0.74997   1.00
C3a      0.21935    0.04254    0.73163   1.00
C3       0.22694    -0.04232   0.77630   1.00
C3       0.27967    0.04232    0.76852   1.00
C3a      0.27403    -0.04254   0.72356   1.00
C2       0.25001    0.10512    0.75008   1.00
C2       0.25002    -0.10512   0.75008   1.00
C3       0.21998    0.08405    0.73189   1.00
C3       0.22680    -0.08363   0.77624   1.00
C3       0.27979    0.08363    0.76842   1.00
C3       0.27350    -0.08405   0.72399   1.00
C5       0.18604    0.02228    0.71091   1.00
H1       0.20846    -0.02691   0.79679   1.00
H1       0.19688    0.10021    0.71769   1.00
H1       0.20838    -0.09901   0.79676   1.00
H1       0.30336    0.09901    0.78274   1.00
H1       0.29152    -0.10021   0.70372   1.00
C5       0.29994    -0.02228   0.69409   1.00
H1       0.30328    0.02691    0.78280   1.00
H2       0.30692    -0.04256   0.66980   1.00
H2       0.28424    0.00269    0.68068   1.00
H2       0.17233    0.04256    0.68967   1.00
H2       0.19719    -0.00269   0.69353   1.00
N1       0.33605    -0.00857   0.71232   1.00
C6       0.36444    -0.03073   0.72725   1.00
C6       0.34744    0.02846    0.71620   1.00
C6       0.39410    -0.00759   0.74133   1.00
C6       0.38330    0.03005    0.73430   1.00
H3       0.36362    -0.06197   0.72825   1.00
H3       0.33059    0.05300    0.70676   1.00
H3       0.42066    -0.01713   0.75515   1.00
H3       0.39972    0.05575    0.74158   1.00
N1       0.15673    0.00857    0.73879   1.00
C6       0.14695    -0.02846   0.74580   1.00
C6       0.13387    0.03073    0.76129   1.00
C6       0.11785    -0.03005   0.77348   1.00
C6       0.10954    0.00759    0.78334   1.00
H3       0.16035    -0.05300   0.73189   1.00
H3       0.13494    0.06197    0.76201   1.00
H3       0.10423    -0.05575   0.78520   1.00
H3       0.08811    0.01713    0.80424   1.00
C4       0.25003    0.24980    0.52085   1.00
C4       0.24997    0.25020    0.47915   1.00
C3a      0.23163    0.21935    0.54254   1.00
C3       0.27630    0.22694    0.45768   1.00
C3       0.26852    0.27967    0.54232   1.00
C3a      0.22356    0.27403    0.45746   1.00
C2       0.25008    0.25001    0.60512   1.00
C2       0.25008    0.25002    0.39488   1.00
C3       0.23189    0.21998    0.58405   1.00
C3       0.27624    0.22680    0.41637   1.00
C3       0.26842    0.27979    0.58363   1.00
C3       0.22399    0.27350    0.41595   1.00
C5       0.21091    0.18604    0.52228   1.00
H1       0.29679    0.20846    0.47309   1.00
H1       0.21769    0.19688    0.60021   1.00
H1       0.29676    0.20838    0.40099   1.00
H1       0.28274    0.30336    0.59901   1.00
H1       0.20372    0.29152    0.39979   1.00
C5       0.19409    0.29994    0.47772   1.00
H1       0.28280    0.30328    0.52691   1.00
H2       0.16980    0.30692    0.45744   1.00
H2       0.18068    0.28424    0.50269   1.00
H2       0.18967    0.17233    0.54256   1.00
H2       0.19353    0.19719    0.49731   1.00
N1       0.21232    0.33605    0.49143   1.00
C6       0.22725    0.36444    0.46927   1.00
C6       0.21620    0.34744    0.52846   1.00
C6       0.24133    0.39410    0.49241   1.00
C6       0.23430    0.38330    0.53005   1.00
H3       0.22825    0.36362    0.43803   1.00
H3       0.20676    0.33059    0.55300   1.00
H3       0.25515    0.42066    0.48287   1.00
H3       0.24158    0.39972    0.55575   1.00
N1       0.23879    0.15673    0.50857   1.00
C6       0.24580    0.14695    0.47154   1.00
C6       0.26129    0.13387    0.53073   1.00
C6       0.27348    0.11785    0.46995   1.00
C6       0.28334    0.10954    0.50759   1.00
H3       0.23189    0.16035    0.44700   1.00
H3       0.26201    0.13494    0.56197   1.00
H3       0.28520    0.10423    0.44425   1.00
H3       0.30424    0.08811    0.51713   1.00
C4       0.25003    0.75020    0.47915   1.00
C4       0.24997    0.74980    0.52085   1.00
C3a      0.23163    0.78065    0.45746   1.00
C3       0.27630    0.77306    0.54232   1.00
C3       0.26852    0.72033    0.45768   1.00
C3a      0.22356    0.72597    0.54254   1.00
C2       0.25008    0.74999    0.39488   1.00
C2       0.25008    0.74998    0.60512   1.00
C3       0.23189    0.78002    0.41595   1.00
C3       0.27624    0.77320    0.58363   1.00
C3       0.26842    0.72021    0.41637   1.00
C3       0.22399    0.72650    0.58405   1.00
C5       0.21091    0.81396    0.47772   1.00
H1       0.29679    0.79154    0.52691   1.00
H1       0.21769    0.80312    0.39979   1.00
H1       0.29676    0.79162    0.59901   1.00
H1       0.28274    0.69664    0.40099   1.00
H1       0.20372    0.70848    0.60021   1.00
C5       0.19409    0.70006    0.52228   1.00
H1       0.28280    0.69672    0.47309   1.00
H2       0.16980    0.69308    0.54256   1.00
H2       0.18068    0.71576    0.49731   1.00
H2       0.18967    0.82767    0.45744   1.00
H2       0.19353    0.80281    0.50269   1.00
N1       0.21232    0.66395    0.50857   1.00
C6       0.22725    0.63556    0.53073   1.00
C6       0.21620    0.65256    0.47154   1.00
C6       0.24133    0.60590    0.50759   1.00
C6       0.23430    0.61670    0.46995   1.00
H3       0.22825    0.63638    0.56197   1.00
H3       0.20676    0.66941    0.44700   1.00
H3       0.25515    0.57934    0.51713   1.00
H3       0.24158    0.60028    0.44425   1.00
N1       0.23879    0.84327    0.49143   1.00
C6       0.24580    0.85305    0.52846   1.00
C6       0.26129    0.86613    0.46927   1.00
C6       0.27348    0.88215    0.53005   1.00
C6       0.28334    0.89046    0.49241   1.00
H3       0.23189    0.83965    0.55300   1.00
H3       0.26201    0.86506    0.43803   1.00
H3       0.28520    0.89577    0.55575   1.00
H3       0.30424    0.91189    0.48287   1.00
C4       0.25020    0.97915    0.25003   1.00
C4       0.24980    1.02085    0.24997   1.00
C3a      0.28065    0.95746    0.23163   1.00
C3       0.27306    1.04232    0.27630   1.00
C3       0.22033    0.95768    0.26852   1.00
C3a      0.22597    1.04254    0.22356   1.00
C2       0.24999    0.89488    0.25008   1.00
C2       0.24998    1.10512    0.25008   1.00
C3       0.28002    0.91595    0.23189   1.00
C3       0.27320    1.08363    0.27624   1.00
C3       0.22021    0.91637    0.26842   1.00
C3       0.22650    1.08405    0.22399   1.00
C5       0.31396    0.97772    0.21091   1.00
H1       0.29154    1.02691    0.29679   1.00
H1       0.30312    0.89979    0.21769   1.00
H1       0.29162    1.09901    0.29676   1.00
H1       0.19664    0.90099    0.28274   1.00
H1       0.20848    1.10021    0.20372   1.00
C5       0.20006    1.02228    0.19409   1.00
H1       0.19672    0.97309    0.28280   1.00
H2       0.19308    1.04256    0.16980   1.00
H2       0.21576    0.99731    0.18068   1.00
H2       0.32767    0.95744    0.18967   1.00
H2       0.30281    1.00269    0.19353   1.00
N1       0.16395    1.00857    0.21232   1.00
C6       0.13556    1.03073    0.22725   1.00
C6       0.15256    0.97154    0.21620   1.00
C6       0.10590    1.00759    0.24133   1.00
C6       0.11670    0.96995    0.23430   1.00
H3       0.13638    1.06197    0.22825   1.00
H3       0.16941    0.94700    0.20676   1.00
H3       0.07934    1.01713    0.25515   1.00
H3       0.10028    0.94425    0.24158   1.00
N1       0.34327    0.99143    0.23879   1.00
C6       0.35305    1.02846    0.24580   1.00
C6       0.36613    0.96927    0.26129   1.00
C6       0.38215    1.03005    0.27348   1.00
C6       0.39046    0.99241    0.28334   1.00
H3       0.33965    1.05300    0.23189   1.00
H3       0.36506    0.93803    0.26201   1.00
H3       0.39577    1.05575    0.28520   1.00
H3       0.41189    0.98287    0.30424   1.00
C4       0.02085    0.75003    0.24980   1.00
C4       -0.02085   0.74997    0.25020   1.00
C3a      0.04254    0.73163    0.21935   1.00
C3       -0.04232   0.77630    0.22694   1.00
C3       0.04232    0.76852    0.27967   1.00
C3a      -0.04254   0.72356    0.27403   1.00
C2       0.10512    0.75008    0.25001   1.00
C2       -0.10512   0.75008    0.25002   1.00
C3       0.08405    0.73189    0.21998   1.00
C3       -0.08363   0.77624    0.22680   1.00
C3       0.08363    0.76842    0.27979   1.00
C3       -0.08405   0.72399    0.27350   1.00
C5       0.02228    0.71091    0.18604   1.00
H1       -0.02691   0.79679    0.20846   1.00
H1       0.10021    0.71769    0.19688   1.00
H1       -0.09901   0.79676    0.20838   1.00
H1       0.09901    0.78274    0.30336   1.00
H1       -0.10021   0.70372    0.29152   1.00
C5       -0.02228   0.69409    0.29994   1.00
H1       0.02691    0.78280    0.30328   1.00
H2       -0.04256   0.66980    0.30692   1.00
H2       0.00269    0.68068    0.28424   1.00
H2       0.04256    0.68967    0.17233   1.00
H2       -0.00269   0.69353    0.19719   1.00
N1       -0.00857   0.71232    0.33605   1.00
C6       -0.03073   0.72725    0.36444   1.00
C6       0.02846    0.71620    0.34744   1.00
C6       -0.00759   0.74133    0.39410   1.00
C6       0.03005    0.73430    0.38330   1.00
H3       -0.06197   0.72825    0.36362   1.00
H3       0.05300    0.70676    0.33059   1.00
H3       -0.01713   0.75515    0.42066   1.00
H3       0.05575    0.74158    0.39972   1.00
N1       0.00857    0.73879    0.15673   1.00
C6       -0.02846   0.74580    0.14695   1.00
C6       0.03073    0.76129    0.13387   1.00
C6       -0.03005   0.77348    0.11785   1.00
C6       0.00759    0.78334    0.10954   1.00
H3       -0.05300   0.73189    0.16035   1.00
H3       0.06197    0.76201    0.13494   1.00
H3       -0.05575   0.78520    0.10423   1.00
H3       0.01713    0.80424    0.08811   1.00
C4       0.47915    0.75003    0.25020   1.00
C4       0.52085    0.74997    0.24980   1.00
C3a      0.45746    0.73163    0.28065   1.00
C3       0.54232    0.77630    0.27306   1.00
C3       0.45768    0.76852    0.22033   1.00
C3a      0.54254    0.72356    0.22597   1.00
C2       0.39488    0.75008    0.24999   1.00
C2       0.60512    0.75008    0.24998   1.00
C3       0.41595    0.73189    0.28002   1.00
C3       0.58363    0.77624    0.27320   1.00
C3       0.41637    0.76842    0.22021   1.00
C3       0.58405    0.72399    0.22650   1.00
C5       0.47772    0.71091    0.31396   1.00
H1       0.52691    0.79679    0.29154   1.00
H1       0.39979    0.71769    0.30312   1.00
H1       0.59901    0.79676    0.29162   1.00
H1       0.40099    0.78274    0.19664   1.00
H1       0.60021    0.70372    0.20848   1.00
C5       0.52228    0.69409    0.20006   1.00
H1       0.47309    0.78280    0.19672   1.00
H2       0.54256    0.66980    0.19308   1.00
H2       0.49731    0.68068    0.21576   1.00
H2       0.45744    0.68967    0.32767   1.00
H2       0.50269    0.69353    0.30281   1.00
N1       0.50857    0.71232    0.16395   1.00
C6       0.53073    0.72725    0.13556   1.00
C6       0.47154    0.71620    0.15256   1.00
C6       0.50759    0.74133    0.10590   1.00
C6       0.46995    0.73430    0.11670   1.00
H3       0.56197    0.72825    0.13638   1.00
H3       0.44700    0.70676    0.16941   1.00
H3       0.51713    0.75515    0.07934   1.00
H3       0.44425    0.74158    0.10028   1.00
N1       0.49143    0.73879    0.34327   1.00
C6       0.52846    0.74580    0.35305   1.00
C6       0.46927    0.76129    0.36613   1.00
C6       0.53005    0.77348    0.38215   1.00
C6       0.49241    0.78334    0.39046   1.00
H3       0.55300    0.73189    0.33965   1.00
H3       0.43803    0.76201    0.36506   1.00
H3       0.55575    0.78520    0.39577   1.00
H3       0.48287    0.80424    0.41189   1.00
C4       0.24980    0.52085    0.25003   1.00
C4       0.25020    0.47915    0.24997   1.00
C3a      0.21935    0.54254    0.23163   1.00
C3       0.22694    0.45768    0.27630   1.00
C3       0.27967    0.54232    0.26852   1.00
C3a      0.27403    0.45746    0.22356   1.00
C2       0.25001    0.60512    0.25008   1.00
C2       0.25002    0.39488    0.25008   1.00
C3       0.21998    0.58405    0.23189   1.00
C3       0.22680    0.41637    0.27624   1.00
C3       0.27979    0.58363    0.26842   1.00
C3       0.27350    0.41595    0.22399   1.00
C5       0.18604    0.52228    0.21091   1.00
H1       0.20846    0.47309    0.29679   1.00
H1       0.19688    0.60021    0.21769   1.00
H1       0.20838    0.40099    0.29676   1.00
H1       0.30336    0.59901    0.28274   1.00
H1       0.29152    0.39979    0.20372   1.00
C5       0.29994    0.47772    0.19409   1.00
H1       0.30328    0.52691    0.28280   1.00
H2       0.30692    0.45744    0.16980   1.00
H2       0.28424    0.50269    0.18068   1.00
H2       0.17233    0.54256    0.18967   1.00
H2       0.19719    0.49731    0.19353   1.00
N1       0.33605    0.49143    0.21232   1.00
C6       0.36444    0.46927    0.22725   1.00
C6       0.34744    0.52846    0.21620   1.00
C6       0.39410    0.49241    0.24133   1.00
C6       0.38330    0.53005    0.23430   1.00
H3       0.36362    0.43803    0.22825   1.00
H3       0.33059    0.55300    0.20676   1.00
H3       0.42066    0.48287    0.25515   1.00
H3       0.39972    0.55575    0.24158   1.00
N1       0.15673    0.50857    0.23879   1.00
C6       0.14695    0.47154    0.24580   1.00
C6       0.13387    0.53073    0.26129   1.00
C6       0.11785    0.46995    0.27348   1.00
C6       0.10954    0.50759    0.28334   1.00
H3       0.16035    0.44700    0.23189   1.00
H3       0.13494    0.56197    0.26201   1.00
H3       0.10423    0.44425    0.28520   1.00
H3       0.08811    0.51713    0.30424   1.00
C4       0.25003    0.74980    0.02085   1.00
C4       0.24997    0.75020    -0.02085   1.00
C3a      0.23163    0.71935    0.04254   1.00
C3       0.27630    0.72694    -0.04232   1.00
C3       0.26852    0.77967    0.04232   1.00
C3a      0.22356    0.77403    -0.04254   1.00
C2       0.25008    0.75001    0.10512   1.00
C2       0.25008    0.75002    -0.10512   1.00
C3       0.23189    0.71998    0.08405   1.00
C3       0.27624    0.72680    -0.08363   1.00
C3       0.26842    0.77979    0.08363   1.00
C3       0.22399    0.77350    -0.08405   1.00
C5       0.21091    0.68604    0.02228   1.00
H1       0.29679    0.70846    -0.02691   1.00
H1       0.21769    0.69688    0.10021   1.00
H1       0.29676    0.70838    -0.09901   1.00
H1       0.28274    0.80336    0.09901   1.00
H1       0.20372    0.79152    -0.10021   1.00
C5       0.19409    0.79994    -0.02228   1.00
H1       0.28280    0.80328    0.02691   1.00
H2       0.16980    0.80692    -0.04256   1.00
H2       0.18068    0.78424    0.00269   1.00
H2       0.18967    0.67233    0.04256   1.00
H2       0.19353    0.69719    -0.00269   1.00
N1       0.21232    0.83605    -0.00857   1.00
C6       0.22725    0.86444    -0.03073   1.00
C6       0.21620    0.84744    0.02846   1.00
C6       0.24133    0.89410    -0.00759   1.00
C6       0.23430    0.88330    0.03005   1.00
H3       0.22825    0.86362    -0.06197   1.00
H3       0.20676    0.83059    0.05300   1.00
H3       0.25515    0.92066    -0.01713   1.00
H3       0.24158    0.89972    0.05575   1.00
N1       0.23879    0.65673    0.00857   1.00
C6       0.24580    0.64695    -0.02846   1.00
C6       0.26129    0.63387    0.03073   1.00
C6       0.27348    0.61785    -0.03005   1.00
C6       0.28334    0.60954    0.00759   1.00
H3       0.23189    0.66035    -0.05300   1.00
H3       0.26201    0.63494    0.06197   1.00
H3       0.28520    0.60423    -0.05575   1.00
H3       0.30424    0.58811    0.01713   1.00
C4       0.75003    0.25020    0.47915   1.00
C4       0.74997    0.24980    0.52085   1.00
C3a      0.73163    0.28065    0.45746   1.00
C3       0.77630    0.27306    0.54232   1.00
C3       0.76852    0.22033    0.45768   1.00
C3a      0.72356    0.22597    0.54254   1.00
C2       0.75008    0.24999    0.39488   1.00
C2       0.75008    0.24998    0.60512   1.00
C3       0.73189    0.28002    0.41595   1.00
C3       0.77624    0.27320    0.58363   1.00
C3       0.76842    0.22021    0.41637   1.00
C3       0.72399    0.22650    0.58405   1.00
C5       0.71091    0.31396    0.47772   1.00
H1       0.79679    0.29154    0.52691   1.00
H1       0.71769    0.30312    0.39979   1.00
H1       0.79676    0.29162    0.59901   1.00
H1       0.78274    0.19664    0.40099   1.00
H1       0.70372    0.20848    0.60021   1.00
C5       0.69409    0.20006    0.52228   1.00
H1       0.78280    0.19672    0.47309   1.00
H2       0.66980    0.19308    0.54256   1.00
H2       0.68068    0.21576    0.49731   1.00
H2       0.68967    0.32767    0.45744   1.00
H2       0.69353    0.30281    0.50269   1.00
N1       0.71232    0.16395    0.50857   1.00
C6       0.72725    0.13556    0.53073   1.00
C6       0.71620    0.15256    0.47154   1.00
C6       0.74133    0.10590    0.50759   1.00
C6       0.73430    0.11670    0.46995   1.00
H3       0.72825    0.13638    0.56197   1.00
H3       0.70676    0.16941    0.44700   1.00
H3       0.75515    0.07934    0.51713   1.00
H3       0.74158    0.10028    0.44425   1.00
N1       0.73879    0.34327    0.49143   1.00
C6       0.74580    0.35305    0.52846   1.00
C6       0.76129    0.36613    0.46927   1.00
C6       0.77348    0.38215    0.53005   1.00
C6       0.78334    0.39046    0.49241   1.00
H3       0.73189    0.33965    0.55300   1.00
H3       0.76201    0.36506    0.43803   1.00
H3       0.78520    0.39577    0.55575   1.00
H3       0.80424    0.41189    0.48287   1.00
C4       0.75020    0.47915    0.25003   1.00
C4       0.74980    0.52085    0.24997   1.00
C3a      0.78065    0.45746    0.23163   1.00
C3       0.77306    0.54232    0.27630   1.00
C3       0.72033    0.45768    0.26852   1.00
C3a      0.72597    0.54254    0.22356   1.00
C2       0.74999    0.39488    0.25008   1.00
C2       0.74998    0.60512    0.25008   1.00
C3       0.78002    0.41595    0.23189   1.00
C3       0.77320    0.58363    0.27624   1.00
C3       0.72021    0.41637    0.26842   1.00
C3       0.72650    0.58405    0.22399   1.00
C5       0.81396    0.47772    0.21091   1.00
H1       0.79154    0.52691    0.29679   1.00
H1       0.80312    0.39979    0.21769   1.00
H1       0.79162    0.59901    0.29676   1.00
H1       0.69664    0.40099    0.28274   1.00
H1       0.70848    0.60021    0.20372   1.00
C5       0.70006    0.52228    0.19409   1.00
H1       0.69672    0.47309    0.28280   1.00
H2       0.69308    0.54256    0.16980   1.00
H2       0.71576    0.49731    0.18068   1.00
H2       0.82767    0.45744    0.18967   1.00
H2       0.80281    0.50269    0.19353   1.00
N1       0.66395    0.50857    0.21232   1.00
C6       0.63556    0.53073    0.22725   1.00
C6       0.65256    0.47154    0.21620   1.00
C6       0.60590    0.50759    0.24133   1.00
C6       0.61670    0.46995    0.23430   1.00
H3       0.63638    0.56197    0.22825   1.00
H3       0.66941    0.44700    0.20676   1.00
H3       0.57934    0.51713    0.25515   1.00
H3       0.60028    0.44425    0.24158   1.00
N1       0.84327    0.49143    0.23879   1.00
C6       0.85305    0.52846    0.24580   1.00
C6       0.86613    0.46927    0.26129   1.00
C6       0.88215    0.53005    0.27348   1.00
C6       0.89046    0.49241    0.28334   1.00
H3       0.83965    0.55300    0.23189   1.00
H3       0.86506    0.43803    0.26201   1.00
H3       0.89577    0.55575    0.28520   1.00
H3       0.91189    0.48287    0.30424   1.00
C4       0.52085    0.25003    0.24980   1.00
C4       0.47915    0.24997    0.25020   1.00
C3a      0.54254    0.23163    0.21935   1.00
C3       0.45768    0.27630    0.22694   1.00
C3       0.54232    0.26852    0.27967   1.00
C3a      0.45746    0.22356    0.27403   1.00
C2       0.60512    0.25008    0.25001   1.00
C2       0.39488    0.25008    0.25002   1.00
C3       0.58405    0.23189    0.21998   1.00
C3       0.41637    0.27624    0.22680   1.00
C3       0.58363    0.26842    0.27979   1.00
C3       0.41595    0.22399    0.27350   1.00
C5       0.52228    0.21091    0.18604   1.00
H1       0.47309    0.29679    0.20846   1.00
H1       0.60021    0.21769    0.19688   1.00
H1       0.40099    0.29676    0.20838   1.00
H1       0.59901    0.28274    0.30336   1.00
H1       0.39979    0.20372    0.29152   1.00
C5       0.47772    0.19409    0.29994   1.00
H1       0.52691    0.28280    0.30328   1.00
H2       0.45744    0.16980    0.30692   1.00
H2       0.50269    0.18068    0.28424   1.00
H2       0.54256    0.18967    0.17233   1.00
H2       0.49731    0.19353    0.19719   1.00
N1       0.49143    0.21232    0.33605   1.00
C6       0.46927    0.22725    0.36444   1.00
C6       0.52846    0.21620    0.34744   1.00
C6       0.49241    0.24133    0.39410   1.00
C6       0.53005    0.23430    0.38330   1.00
H3       0.43803    0.22825    0.36362   1.00
H3       0.55300    0.20676    0.33059   1.00
H3       0.48287    0.25515    0.42066   1.00
H3       0.55575    0.24158    0.39972   1.00
N1       0.50857    0.23879    0.15673   1.00
C6       0.47154    0.24580    0.14695   1.00
C6       0.53073    0.26129    0.13387   1.00
C6       0.46995    0.27348    0.11785   1.00
C6       0.50759    0.28334    0.10954   1.00
H3       0.44700    0.23189    0.16035   1.00
H3       0.56197    0.26201    0.13494   1.00
H3       0.44425    0.28520    0.10423   1.00
H3       0.51713    0.30424    0.08811   1.00
C4       0.97915    0.25003    0.25020   1.00
C4       1.02085    0.24997    0.24980   1.00
C3a      0.95746    0.23163    0.28065   1.00
C3       1.04232    0.27630    0.27306   1.00
C3       0.95768    0.26852    0.22033   1.00
C3a      1.04254    0.22356    0.22597   1.00
C2       0.89488    0.25008    0.24999   1.00
C2       1.10512    0.25008    0.24998   1.00
C3       0.91595    0.23189    0.28002   1.00
C3       1.08363    0.27624    0.27320   1.00
C3       0.91637    0.26842    0.22021   1.00
C3       1.08405    0.22399    0.22650   1.00
C5       0.97772    0.21091    0.31396   1.00
H1       1.02691    0.29679    0.29154   1.00
H1       0.89979    0.21769    0.30312   1.00
H1       1.09901    0.29676    0.29162   1.00
H1       0.90099    0.28274    0.19664   1.00
H1       1.10021    0.20372    0.20848   1.00
C5       1.02228    0.19409    0.20006   1.00
H1       0.97309    0.28280    0.19672   1.00
H2       1.04256    0.16980    0.19308   1.00
H2       0.99731    0.18068    0.21576   1.00
H2       0.95744    0.18967    0.32767   1.00
H2       1.00269    0.19353    0.30281   1.00
N1       1.00857    0.21232    0.16395   1.00
C6       1.03073    0.22725    0.13556   1.00
C6       0.97154    0.21620    0.15256   1.00
C6       1.00759    0.24133    0.10590   1.00
C6       0.96995    0.23430    0.11670   1.00
H3       1.06197    0.22825    0.13638   1.00
H3       0.94700    0.20676    0.16941   1.00
H3       1.01713    0.25515    0.07934   1.00
H3       0.94425    0.24158    0.10028   1.00
N1       0.99143    0.23879    0.34327   1.00
C6       1.02846    0.24580    0.35305   1.00
C6       0.96927    0.26129    0.36613   1.00
C6       1.03005    0.27348    0.38215   1.00
C6       0.99241    0.28334    0.39046   1.00
H3       1.05300    0.23189    0.33965   1.00
H3       0.93803    0.26201    0.36506   1.00
H3       1.05575    0.28520    0.39577   1.00
H3       0.98287    0.30424    0.41189   1.00
C4       0.74980    0.02085    0.25003   1.00
C4       0.75020    -0.02085   0.24997   1.00
C3a      0.71935    0.04254    0.23163   1.00
C3       0.72694    -0.04232   0.27630   1.00
C3       0.77967    0.04232    0.26852   1.00
C3a      0.77403    -0.04254   0.22356   1.00
C2       0.75001    0.10512    0.25008   1.00
C2       0.75002    -0.10512   0.25008   1.00
C3       0.71998    0.08405    0.23189   1.00
C3       0.72680    -0.08363   0.27624   1.00
C3       0.77979    0.08363    0.26842   1.00
C3       0.77350    -0.08405   0.22399   1.00
C5       0.68604    0.02228    0.21091   1.00
H1       0.70846    -0.02691   0.29679   1.00
H1       0.69688    0.10021    0.21769   1.00
H1       0.70838    -0.09901   0.29676   1.00
H1       0.80336    0.09901    0.28274   1.00
H1       0.79152    -0.10021   0.20372   1.00
C5       0.79994    -0.02228   0.19409   1.00
H1       0.80328    0.02691    0.28280   1.00
H2       0.80692    -0.04256   0.16980   1.00
H2       0.78424    0.00269    0.18068   1.00
H2       0.67233    0.04256    0.18967   1.00
H2       0.69719    -0.00269   0.19353   1.00
N1       0.83605    -0.00857   0.21232   1.00
C6       0.86444    -0.03073   0.22725   1.00
C6       0.84744    0.02846    0.21620   1.00
C6       0.89410    -0.00759   0.24133   1.00
C6       0.88330    0.03005    0.23430   1.00
H3       0.86362    -0.06197   0.22825   1.00
H3       0.83059    0.05300    0.20676   1.00
H3       0.92066    -0.01713   0.25515   1.00
H3       0.89972    0.05575    0.24158   1.00
N1       0.65673    0.00857    0.23879   1.00
C6       0.64695    -0.02846   0.24580   1.00
C6       0.63387    0.03073    0.26129   1.00
C6       0.61785    -0.03005   0.27348   1.00
C6       0.60954    0.00759    0.28334   1.00
H3       0.66035    -0.05300   0.23189   1.00
H3       0.63494    0.06197    0.26201   1.00
H3       0.60423    -0.05575   0.28520   1.00
H3       0.58811    0.01713    0.30424   1.00
C4       0.75003    0.24980    0.02085   1.00
C4       0.74997    0.25020    -0.02085   1.00
C3a      0.73163    0.21935    0.04254   1.00
C3       0.77630    0.22694    -0.04232   1.00
C3       0.76852    0.27967    0.04232   1.00
C3a      0.72356    0.27403    -0.04254   1.00
C2       0.75008    0.25001    0.10512   1.00
C2       0.75008    0.25002    -0.10512   1.00
C3       0.73189    0.21998    0.08405   1.00
C3       0.77624    0.22680    -0.08363   1.00
C3       0.76842    0.27979    0.08363   1.00
C3       0.72399    0.27350    -0.08405   1.00
C5       0.71091    0.18604    0.02228   1.00
H1       0.79679    0.20846    -0.02691   1.00
H1       0.71769    0.19688    0.10021   1.00
H1       0.79676    0.20838    -0.09901   1.00
H1       0.78274    0.30336    0.09901   1.00
H1       0.70372    0.29152    -0.10021   1.00
C5       0.69409    0.29994    -0.02228   1.00
H1       0.78280    0.30328    0.02691   1.00
H2       0.66980    0.30692    -0.04256   1.00
H2       0.68068    0.28424    0.00269   1.00
H2       0.68967    0.17233    0.04256   1.00
H2       0.69353    0.19719    -0.00269   1.00
N1       0.71232    0.33605    -0.00857   1.00
C6       0.72725    0.36444    -0.03073   1.00
C6       0.71620    0.34744    0.02846   1.00
C6       0.74133    0.39410    -0.00759   1.00
C6       0.73430    0.38330    0.03005   1.00
H3       0.72825    0.36362    -0.06197   1.00
H3       0.70676    0.33059    0.05300   1.00
H3       0.75515    0.42066    -0.01713   1.00
H3       0.74158    0.39972    0.05575   1.00
N1       0.73879    0.15673    0.00857   1.00
C6       0.74580    0.14695    -0.02846   1.00
C6       0.76129    0.13387    0.03073   1.00
C6       0.77348    0.11785    -0.03005   1.00
C6       0.78334    0.10954    0.00759   1.00
H3       0.73189    0.16035    -0.05300   1.00
H3       0.76201    0.13494    0.06197   1.00
H3       0.78520    0.10423    -0.05575   1.00
H3       0.80424    0.08811    0.01713   1.00
C4       1.00003    1.00020    1.22915   1.00
C4       0.99997    0.99980    1.27085   1.00
C3a      0.98163    1.03065    1.20746   1.00
C3       1.02630    1.02306    1.29232   1.00
C3       1.01852    0.97033    1.20768   1.00
C3a      0.97356    0.97597    1.29254   1.00
C2       1.00008    0.99999    1.14488   1.00
C2       1.00008    0.99998    1.35512   1.00
C3       0.98189    1.03002    1.16595   1.00
C3       1.02624    1.02320    1.33363   1.00
C3       1.01842    0.97021    1.16637   1.00
C3       0.97399    0.97650    1.33405   1.00
C5       0.96091    1.06396    1.22772   1.00
H1       1.04679    1.04154    1.27691   1.00
H1       0.96769    1.05312    1.14979   1.00
H1       1.04676    1.04162    1.34901   1.00
H1       1.03274    0.94664    1.15099   1.00
H1       0.95372    0.95848    1.35021   1.00
C5       0.94409    0.95006    1.27228   1.00
H1       1.03280    0.94672    1.22309   1.00
H2       0.91980    0.94308    1.29256   1.00
H2       0.93068    0.96576    1.24731   1.00
H2       0.93967    1.07767    1.20744   1.00
H2       0.94353    1.05281    1.25269   1.00
N1       0.96232    0.91395    1.25857   1.00
C6       0.97725    0.88556    1.28073   1.00
C6       0.96620    0.90256    1.22154   1.00
C6       0.99133    0.85590    1.25759   1.00
C6       0.98430    0.86670    1.21995   1.00
H3       0.97825    0.88638    1.31197   1.00
H3       0.95676    0.91941    1.19700   1.00
H3       1.00515    0.82934    1.26713   1.00
H3       0.99158    0.85028    1.19425   1.00
N1       0.98879    1.09327    1.24143   1.00
C6       0.99580    1.10305    1.27846   1.00
C6       1.01129    1.11613    1.21927   1.00
C6       1.02348    1.13215    1.28005   1.00
C6       1.03334    1.14046    1.24241   1.00
H3       0.98189    1.08965    1.30300   1.00
H3       1.01201    1.11506    1.18803   1.00
H3       1.03520    1.14577    1.30575   1.00
H3       1.05424    1.16189    1.23287   1.00
C4       1.00020    1.22915    1.00003   1.00
C4       0.99980    1.27085    0.99997   1.00
C3a      1.03065    1.20746    0.98163   1.00
C3       1.02306    1.29232    1.02630   1.00
C3       0.97033    1.20768    1.01852   1.00
C3a      0.97597    1.29254    0.97356   1.00
C2       0.99999    1.14488    1.00008   1.00
C2       0.99998    1.35512    1.00008   1.00
C3       1.03002    1.16595    0.98189   1.00
C3       1.02320    1.33363    1.02624   1.00
C3       0.97021    1.16637    1.01842   1.00
C3       0.97650    1.33405    0.97399   1.00
C5       1.06396    1.22772    0.96091   1.00
H1       1.04154    1.27691    1.04679   1.00
H1       1.05312    1.14979    0.96769   1.00
H1       1.04162    1.34901    1.04676   1.00
H1       0.94664    1.15099    1.03274   1.00
H1       0.95848    1.35021    0.95372   1.00
C5       0.95006    1.27228    0.94409   1.00
H1       0.94672    1.22309    1.03280   1.00
H2       0.94308    1.29256    0.91980   1.00
H2       0.96576    1.24731    0.93068   1.00
H2       1.07767    1.20744    0.93967   1.00
H2       1.05281    1.25269    0.94353   1.00
N1       0.91395    1.25857    0.96232   1.00
C6       0.88556    1.28073    0.97725   1.00
C6       0.90256    1.22154    0.96620   1.00
C6       0.85590    1.25759    0.99133   1.00
C6       0.86670    1.21995    0.98430   1.00
H3       0.88638    1.31197    0.97825   1.00
H3       0.91941    1.19700    0.95676   1.00
H3       0.82934    1.26713    1.00515   1.00
H3       0.85028    1.19425    0.99158   1.00
N1       1.09327    1.24143    0.98879   1.00
C6       1.10305    1.27846    0.99580   1.00
C6       1.11613    1.21927    1.01129   1.00
C6       1.13215    1.28005    1.02348   1.00
C6       1.14046    1.24241    1.03334   1.00
H3       1.08965    1.30300    0.98189   1.00
H3       1.11506    1.18803    1.01201   1.00
H3       1.14577    1.30575    1.03520   1.00
H3       1.16189    1.23287    1.05424   1.00
C4       0.77085    1.00003    0.99980   1.00
C4       0.72915    0.99997    1.00020   1.00
C3a      0.79254    0.98163    0.96935   1.00
C3       0.70768    1.02630    0.97694   1.00
C3       0.79232    1.01852    1.02967   1.00
C3a      0.70746    0.97356    1.02403   1.00
C2       0.85512    1.00008    1.00001   1.00
C2       0.64488    1.00008    1.00002   1.00
C3       0.83405    0.98189    0.96998   1.00
C3       0.66637    1.02624    0.97680   1.00
C3       0.83363    1.01842    1.02979   1.00
C3       0.66595    0.97399    1.02350   1.00
C5       0.77228    0.96091    0.93604   1.00
H1       0.72309    1.04679    0.95846   1.00
H1       0.85021    0.96769    0.94688   1.00
H1       0.65099    1.04676    0.95838   1.00
H1       0.84901    1.03274    1.05336   1.00
H1       0.64979    0.95372    1.04152   1.00
C5       0.72772    0.94409    1.04994   1.00
H1       0.77691    1.03280    1.05328   1.00
H2       0.70744    0.91980    1.05692   1.00
H2       0.75269    0.93068    1.03424   1.00
H2       0.79256    0.93967    0.92233   1.00
H2       0.74731    0.94353    0.94719   1.00
N1       0.74143    0.96232    1.08605   1.00
C6       0.71927    0.97725    1.11444   1.00
C6       0.77846    0.96620    1.09744   1.00
C6       0.74241    0.99133    1.14410   1.00
C6       0.78005    0.98430    1.13330   1.00
H3       0.68803    0.97825    1.11362   1.00
H3       0.80300    0.95676    1.08059   1.00
H3       0.73287    1.00515    1.17066   1.00
H3       0.80575    0.99158    1.14972   1.00
N1       0.75857    0.98879    0.90673   1.00
C6       0.72154    0.99580    0.89695   1.00
C6       0.78073    1.01129    0.88387   1.00
C6       0.71995    1.02348    0.86785   1.00
C6       0.75759    1.03334    0.85954   1.00
H3       0.69700    0.98189    0.91035   1.00
H3       0.81197    1.01201    0.88494   1.00
H3       0.69425    1.03520    0.85423   1.00
H3       0.76713    1.05424    0.83811   1.00
C4       1.22915    1.00003    1.00020   1.00
C4       1.27085    0.99997    0.99980   1.00
C3a      1.20746    0.98163    1.03065   1.00
C3       1.29232    1.02630    1.02306   1.00
C3       1.20768    1.01852    0.97033   1.00
C3a      1.29254    0.97356    0.97597   1.00
C2       1.14488    1.00008    0.99999   1.00
C2       1.35512    1.00008    0.99998   1.00
C3       1.16595    0.98189    1.03002   1.00
C3       1.33363    1.02624    1.02320   1.00
C3       1.16637    1.01842    0.97021   1.00
C3       1.33405    0.97399    0.97650   1.00
C5       1.22772    0.96091    1.06396   1.00
H1       1.27691    1.04679    1.04154   1.00
H1       1.14979    0.96769    1.05312   1.00
H1       1.34901    1.04676    1.04162   1.00
H1       1.15099    1.03274    0.94664   1.00
H1       1.35021    0.95372    0.95848   1.00
C5       1.27228    0.94409    0.95006   1.00
H1       1.22309    1.03280    0.94672   1.00
H2       1.29256    0.91980    0.94308   1.00
H2       1.24731    0.93068    0.96576   1.00
H2       1.20744    0.93967    1.07767   1.00
H2       1.25269    0.94353    1.05281   1.00
N1       1.25857    0.96232    0.91395   1.00
C6       1.28073    0.97725    0.88556   1.00
C6       1.22154    0.96620    0.90256   1.00
C6       1.25759    0.99133    0.85590   1.00
C6       1.21995    0.98430    0.86670   1.00
H3       1.31197    0.97825    0.88638   1.00
H3       1.19700    0.95676    0.91941   1.00
H3       1.26713    1.00515    0.82934   1.00
H3       1.19425    0.99158    0.85028   1.00
N1       1.24143    0.98879    1.09327   1.00
C6       1.27846    0.99580    1.10305   1.00
C6       1.21927    1.01129    1.11613   1.00
C6       1.28005    1.02348    1.13215   1.00
C6       1.24241    1.03334    1.14046   1.00
H3       1.30300    0.98189    1.08965   1.00
H3       1.18803    1.01201    1.11506   1.00
H3       1.30575    1.03520    1.14577   1.00
H3       1.23287    1.05424    1.16189   1.00
C4       0.99980    0.77085    1.00003   1.00
C4       1.00020    0.72915    0.99997   1.00
C3a      0.96935    0.79254    0.98163   1.00
C3       0.97694    0.70768    1.02630   1.00
C3       1.02967    0.79232    1.01852   1.00
C3a      1.02403    0.70746    0.97356   1.00
C2       1.00001    0.85512    1.00008   1.00
C2       1.00002    0.64488    1.00008   1.00
C3       0.96998    0.83405    0.98189   1.00
C3       0.97680    0.66637    1.02624   1.00
C3       1.02979    0.83363    1.01842   1.00
C3       1.02350    0.66595    0.97399   1.00
C5       0.93604    0.77228    0.96091   1.00
H1       0.95846    0.72309    1.04679   1.00
H1       0.94688    0.85021    0.96769   1.00
H1       0.95838    0.65099    1.04676   1.00
H1       1.05336    0.84901    1.03274   1.00
H1       1.04152    0.64979    0.95372   1.00
C5       1.04994    0.72772    0.94409   1.00
H1       1.05328    0.77691    1.03280   1.00
H2       1.05692    0.70744    0.91980   1.00
H2       1.03424    0.75269    0.93068   1.00
H2       0.92233    0.79256    0.93967   1.00
H2       0.94719    0.74731    0.94353   1.00
N1       1.08605    0.74143    0.96232   1.00
C6       1.11444    0.71927    0.97725   1.00
C6       1.09744    0.77846    0.96620   1.00
C6       1.14410    0.74241    0.99133   1.00
C6       1.13330    0.78005    0.98430   1.00
H3       1.11362    0.68803    0.97825   1.00
H3       1.08059    0.80300    0.95676   1.00
H3       1.17066    0.73287    1.00515   1.00
H3       1.14972    0.80575    0.99158   1.00
N1       0.90673    0.75857    0.98879   1.00
C6       0.89695    0.72154    0.99580   1.00
C6       0.88387    0.78073    1.01129   1.00
C6       0.86785    0.71995    1.02348   1.00
C6       0.85954    0.75759    1.03334   1.00
H3       0.91035    0.69700    0.98189   1.00
H3       0.88494    0.81197    1.01201   1.00
H3       0.85423    0.69425    1.03520   1.00
H3       0.83811    0.76713    1.05424   1.00
C4       1.00003    0.99980    0.77085   1.00
C4       0.99997    1.00020    0.72915   1.00
C3a      0.98163    0.96935    0.79254   1.00
C3       1.02630    0.97694    0.70768   1.00
C3       1.01852    1.02967    0.79232   1.00
C3a      0.97356    1.02403    0.70746   1.00
C2       1.00008    1.00001    0.85512   1.00
C2       1.00008    1.00002    0.64488   1.00
C3       0.98189    0.96998    0.83405   1.00
C3       1.02624    0.97680    0.66637   1.00
C3       1.01842    1.02979    0.83363   1.00
C3       0.97399    1.02350    0.66595   1.00
C5       0.96091    0.93604    0.77228   1.00
H1       1.04679    0.95846    0.72309   1.00
H1       0.96769    0.94688    0.85021   1.00
H1       1.04676    0.95838    0.65099   1.00
H1       1.03274    1.05336    0.84901   1.00
H1       0.95372    1.04152    0.64979   1.00
C5       0.94409    1.04994    0.72772   1.00
H1       1.03280    1.05328    0.77691   1.00
H2       0.91980    1.05692    0.70744   1.00
H2       0.93068    1.03424    0.75269   1.00
H2       0.93967    0.92233    0.79256   1.00
H2       0.94353    0.94719    0.74731   1.00
N1       0.96232    1.08605    0.74143   1.00
C6       0.97725    1.11444    0.71927   1.00
C6       0.96620    1.09744    0.77846   1.00
C6       0.99133    1.14410    0.74241   1.00
C6       0.98430    1.13330    0.78005   1.00
H3       0.97825    1.11362    0.68803   1.00
H3       0.95676    1.08059    0.80300   1.00
H3       1.00515    1.17066    0.73287   1.00
H3       0.99158    1.14972    0.80575   1.00
N1       0.98879    0.90673    0.75857   1.00
C6       0.99580    0.89695    0.72154   1.00
C6       1.01129    0.88387    0.78073   1.00
C6       1.02348    0.86785    0.71995   1.00
C6       1.03334    0.85954    0.75759   1.00
H3       0.98189    0.91035    0.69700   1.00
H3       1.01201    0.88494    0.81197   1.00
H3       1.03520    0.85423    0.69425   1.00
H3       1.05424    0.83811    0.76713   1.00
C4       0.50003    0.50020    1.22915   1.00
C4       0.49997    0.49980    1.27085   1.00
C3a      0.48163    0.53065    1.20746   1.00
C3       0.52630    0.52306    1.29232   1.00
C3       0.51852    0.47033    1.20768   1.00
C3a      0.47356    0.47597    1.29254   1.00
C2       0.50008    0.49999    1.14488   1.00
C2       0.50008    0.49998    1.35512   1.00
C3       0.48189    0.53002    1.16595   1.00
C3       0.52624    0.52320    1.33363   1.00
C3       0.51842    0.47021    1.16637   1.00
C3       0.47399    0.47650    1.33405   1.00
C5       0.46091    0.56396    1.22772   1.00
H1       0.54679    0.54154    1.27691   1.00
H1       0.46769    0.55312    1.14979   1.00
H1       0.54676    0.54162    1.34901   1.00
H1       0.53274    0.44664    1.15099   1.00
H1       0.45372    0.45848    1.35021   1.00
C5       0.44409    0.45006    1.27228   1.00
H1       0.53280    0.44672    1.22309   1.00
H2       0.41980    0.44308    1.29256   1.00
H2       0.43068    0.46576    1.24731   1.00
H2       0.43967    0.57767    1.20744   1.00
H2       0.44353    0.55281    1.25269   1.00
N1       0.46232    0.41395    1.25857   1.00
C6       0.47725    0.38556    1.28073   1.00
C6       0.46620    0.40256    1.22154   1.00
C6       0.49133    0.35590    1.25759   1.00
C6       0.48430    0.36670    1.21995   1.00
H3       0.47825    0.38638    1.31197   1.00
H3       0.45676    0.41941    1.19700   1.00
H3       0.50515    0.32934    1.26713   1.00
H3       0.49158    0.35028    1.19425   1.00
N1       0.48879    0.59327    1.24143   1.00
C6       0.49580    0.60305    1.27846   1.00
C6       0.51129    0.61613    1.21927   1.00
C6       0.52348    0.63215    1.28005   1.00
C6       0.53334    0.64046    1.24241   1.00
H3       0.48189    0.58965    1.30300   1.00
H3       0.51201    0.61506    1.18803   1.00
H3       0.53520    0.64577    1.30575   1.00
H3       0.55424    0.66189    1.23287   1.00
C4       0.50020    0.72915    1.00003   1.00
C4       0.49980    0.77085    0.99997   1.00
C3a      0.53065    0.70746    0.98163   1.00
C3       0.52306    0.79232    1.02630   1.00
C3       0.47033    0.70768    1.01852   1.00
C3a      0.47597    0.79254    0.97356   1.00
C2       0.49999    0.64488    1.00008   1.00
C2       0.49998    0.85512    1.00008   1.00
C3       0.53002    0.66595    0.98189   1.00
C3       0.52320    0.83363    1.02624   1.00
C3       0.47021    0.66637    1.01842   1.00
C3       0.47650    0.83405    0.97399   1.00
C5       0.56396    0.72772    0.96091   1.00
H1       0.54154    0.77691    1.04679   1.00
H1       0.55312    0.64979    0.96769   1.00
H1       0.54162    0.84901    1.04676   1.00
H1       0.44664    0.65099    1.03274   1.00
H1       0.45848    0.85021    0.95372   1.00
C5       0.45006    0.77228    0.94409   1.00
H1       0.44672    0.72309    1.03280   1.00
H2       0.44308    0.79256    0.91980   1.00
H2       0.46576    0.74731    0.93068   1.00
H2       0.57767    0.70744    0.93967   1.00
H2       0.55281    0.75269    0.94353   1.00
N1       0.41395    0.75857    0.96232   1.00
C6       0.38556    0.78073    0.97725   1.00
C6       0.40256    0.72154    0.96620   1.00
C6       0.35590    0.75759    0.99133   1.00
C6       0.36670    0.71995    0.98430   1.00
H3       0.38638    0.81197    0.97825   1.00
H3       0.41941    0.69700    0.95676   1.00
H3       0.32934    0.76713    1.00515   1.00
H3       0.35028    0.69425    0.99158   1.00
N1       0.59327    0.74143    0.98879   1.00
C6       0.60305    0.77846    0.99580   1.00
C6       0.61613    0.71927    1.01129   1.00
C6       0.63215    0.78005    1.02348   1.00
C6       0.64046    0.74241    1.03334   1.00
H3       0.58965    0.80300    0.98189   1.00
H3       0.61506    0.68803    1.01201   1.00
H3       0.64577    0.80575    1.03520   1.00
H3       0.66189    0.73287    1.05424   1.00
C4       0.27085    0.50003    0.99980   1.00
C4       0.22915    0.49997    1.00020   1.00
C3a      0.29254    0.48163    0.96935   1.00
C3       0.20768    0.52630    0.97694   1.00
C3       0.29232    0.51852    1.02967   1.00
C3a      0.20746    0.47356    1.02403   1.00
C2       0.35512    0.50008    1.00001   1.00
C2       0.14488    0.50008    1.00002   1.00
C3       0.33405    0.48189    0.96998   1.00
C3       0.16637    0.52624    0.97680   1.00
C3       0.33363    0.51842    1.02979   1.00
C3       0.16595    0.47399    1.02350   1.00
C5       0.27228    0.46091    0.93604   1.00
H1       0.22309    0.54679    0.95846   1.00
H1       0.35021    0.46769    0.94688   1.00
H1       0.15099    0.54676    0.95838   1.00
H1       0.34901    0.53274    1.05336   1.00
H1       0.14979    0.45372    1.04152   1.00
C5       0.22772    0.44409    1.04994   1.00
H1       0.27691    0.53280    1.05328   1.00
H2       0.20744    0.41980    1.05692   1.00
H2       0.25269    0.43068    1.03424   1.00
H2       0.29256    0.43967    0.92233   1.00
H2       0.24731    0.44353    0.94719   1.00
N1       0.24143    0.46232    1.08605   1.00
C6       0.21927    0.47725    1.11444   1.00
C6       0.27846    0.46620    1.09744   1.00
C6       0.24241    0.49133    1.14410   1.00
C6       0.28005    0.48430    1.13330   1.00
H3       0.18803    0.47825    1.11362   1.00
H3       0.30300    0.45676    1.08059   1.00
H3       0.23287    0.50515    1.17066   1.00
H3       0.30575    0.49158    1.14972   1.00
N1       0.25857    0.48879    0.90673   1.00
C6       0.22154    0.49580    0.89695   1.00
C6       0.28073    0.51129    0.88387   1.00
C6       0.21995    0.52348    0.86785   1.00
C6       0.25759    0.53334    0.85954   1.00
H3       0.19700    0.48189    0.91035   1.00
H3       0.31197    0.51201    0.88494   1.00
H3       0.19425    0.53520    0.85423   1.00
H3       0.26713    0.55424    0.83811   1.00
C4       0.72915    0.50003    1.00020   1.00
C4       0.77085    0.49997    0.99980   1.00
C3a      0.70746    0.48163    1.03065   1.00
C3       0.79232    0.52630    1.02306   1.00
C3       0.70768    0.51852    0.97033   1.00
C3a      0.79254    0.47356    0.97597   1.00
C2       0.64488    0.50008    0.99999   1.00
C2       0.85512    0.50008    0.99998   1.00
C3       0.66595    0.48189    1.03002   1.00
C3       0.83363    0.52624    1.02320   1.00
C3       0.66637    0.51842    0.97021   1.00
C3       0.83405    0.47399    0.97650   1.00
C5       0.72772    0.46091    1.06396   1.00
H1       0.77691    0.54679    1.04154   1.00
H1       0.64979    0.46769    1.05312   1.00
H1       0.84901    0.54676    1.04162   1.00
H1       0.65099    0.53274    0.94664   1.00
H1       0.85021    0.45372    0.95848   1.00
C5       0.77228    0.44409    0.95006   1.00
H1       0.72309    0.53280    0.94672   1.00
H2       0.79256    0.41980    0.94308   1.00
H2       0.74731    0.43068    0.96576   1.00
H2       0.70744    0.43967    1.07767   1.00
H2       0.75269    0.44353    1.05281   1.00
N1       0.75857    0.46232    0.91395   1.00
C6       0.78073    0.47725    0.88556   1.00
C6       0.72154    0.46620    0.90256   1.00
C6       0.75759    0.49133    0.85590   1.00
C6       0.71995    0.48430    0.86670   1.00
H3       0.81197    0.47825    0.88638   1.00
H3       0.69700    0.45676    0.91941   1.00
H3       0.76713    0.50515    0.82934   1.00
H3       0.69425    0.49158    0.85028   1.00
N1       0.74143    0.48879    1.09327   1.00
C6       0.77846    0.49580    1.10305   1.00
C6       0.71927    0.51129    1.11613   1.00
C6       0.78005    0.52348    1.13215   1.00
C6       0.74241    0.53334    1.14046   1.00
H3       0.80300    0.48189    1.08965   1.00
H3       0.68803    0.51201    1.11506   1.00
H3       0.80575    0.53520    1.14577   1.00
H3       0.73287    0.55424    1.16189   1.00
C4       0.49980    0.27085    1.00003   1.00
C4       0.50020    0.22915    0.99997   1.00
C3a      0.46935    0.29254    0.98163   1.00
C3       0.47694    0.20768    1.02630   1.00
C3       0.52967    0.29232    1.01852   1.00
C3a      0.52403    0.20746    0.97356   1.00
C2       0.50001    0.35512    1.00008   1.00
C2       0.50002    0.14488    1.00008   1.00
C3       0.46998    0.33405    0.98189   1.00
C3       0.47680    0.16637    1.02624   1.00
C3       0.52979    0.33363    1.01842   1.00
C3       0.52350    0.16595    0.97399   1.00
C5       0.43604    0.27228    0.96091   1.00
H1       0.45846    0.22309    1.04679   1.00
H1       0.44688    0.35021    0.96769   1.00
H1       0.45838    0.15099    1.04676   1.00
H1       0.55336    0.34901    1.03274   1.00
H1       0.54152    0.14979    0.95372   1.00
C5       0.54994    0.22772    0.94409   1.00
H1       0.55328    0.27691    1.03280   1.00
H2       0.55692    0.20744    0.91980   1.00
H2       0.53424    0.25269    0.93068   1.00
H2       0.42233    0.29256    0.93967   1.00
H2       0.44719    0.24731    0.94353   1.00
N1       0.58605    0.24143    0.96232   1.00
C6       0.61444    0.21927    0.97725   1.00
C6       0.59744    0.27846    0.96620   1.00
C6       0.64410    0.24241    0.99133   1.00
C6       0.63330    0.28005    0.98430   1.00
H3       0.61362    0.18803    0.97825   1.00
H3       0.58059    0.30300    0.95676   1.00
H3       0.67066    0.23287    1.00515   1.00
H3       0.64972    0.30575    0.99158   1.00
N1       0.40673    0.25857    0.98879   1.00
C6       0.39695    0.22154    0.99580   1.00
C6       0.38387    0.28073    1.01129   1.00
C6       0.36785    0.21995    1.02348   1.00
C6       0.35954    0.25759    1.03334   1.00
H3       0.41035    0.19700    0.98189   1.00
H3       0.38494    0.31197    1.01201   1.00
H3       0.35423    0.19425    1.03520   1.00
H3       0.33811    0.26713    1.05424   1.00
C4       0.50003    0.49980    0.77085   1.00
C4       0.49997    0.50020    0.72915   1.00
C3a      0.48163    0.46935    0.79254   1.00
C3       0.52630    0.47694    0.70768   1.00
C3       0.51852    0.52967    0.79232   1.00
C3a      0.47356    0.52403    0.70746   1.00
C2       0.50008    0.50001    0.85512   1.00
C2       0.50008    0.50002    0.64488   1.00
C3       0.48189    0.46998    0.83405   1.00
C3       0.52624    0.47680    0.66637   1.00
C3       0.51842    0.52979    0.83363   1.00
C3       0.47399    0.52350    0.66595   1.00
C5       0.46091    0.43604    0.77228   1.00
H1       0.54679    0.45846    0.72309   1.00
H1       0.46769    0.44688    0.85021   1.00
H1       0.54676    0.45838    0.65099   1.00
H1       0.53274    0.55336    0.84901   1.00
H1       0.45372    0.54152    0.64979   1.00
C5       0.44409    0.54994    0.72772   1.00
H1       0.53280    0.55328    0.77691   1.00
H2       0.41980    0.55692    0.70744   1.00
H2       0.43068    0.53424    0.75269   1.00
H2       0.43967    0.42233    0.79256   1.00
H2       0.44353    0.44719    0.74731   1.00
N1       0.46232    0.58605    0.74143   1.00
C6       0.47725    0.61444    0.71927   1.00
C6       0.46620    0.59744    0.77846   1.00
C6       0.49133    0.64410    0.74241   1.00
C6       0.48430    0.63330    0.78005   1.00
H3       0.47825    0.61362    0.68803   1.00
H3       0.45676    0.58059    0.80300   1.00
H3       0.50515    0.67066    0.73287   1.00
H3       0.49158    0.64972    0.80575   1.00
N1       0.48879    0.40673    0.75857   1.00
C6       0.49580    0.39695    0.72154   1.00
C6       0.51129    0.38387    0.78073   1.00
C6       0.52348    0.36785    0.71995   1.00
C6       0.53334    0.35954    0.75759   1.00
H3       0.48189    0.41035    0.69700   1.00
H3       0.51201    0.38494    0.81197   1.00
H3       0.53520    0.35423    0.69425   1.00
H3       0.55424    0.33811    0.76713   1.00
C4       0.50003    1.00020    0.72915   1.00
C4       0.49997    0.99980    0.77085   1.00
C3a      0.48163    1.03065    0.70746   1.00
C3       0.52630    1.02306    0.79232   1.00
C3       0.51852    0.97033    0.70768   1.00
C3a      0.47356    0.97597    0.79254   1.00
C2       0.50008    0.99999    0.64488   1.00
C2       0.50008    0.99998    0.85512   1.00
C3       0.48189    1.03002    0.66595   1.00
C3       0.52624    1.02320    0.83363   1.00
C3       0.51842    0.97021    0.66637   1.00
C3       0.47399    0.97650    0.83405   1.00
C5       0.46091    1.06396    0.72772   1.00
H1       0.54679    1.04154    0.77691   1.00
H1       0.46769    1.05312    0.64979   1.00
H1       0.54676    1.04162    0.84901   1.00
H1       0.53274    0.94664    0.65099   1.00
H1       0.45372    0.95848    0.85021   1.00
C5       0.44409    0.95006    0.77228   1.00
H1       0.53280    0.94672    0.72309   1.00
H2       0.41980    0.94308    0.79256   1.00
H2       0.43068    0.96576    0.74731   1.00
H2       0.43967    1.07767    0.70744   1.00
H2       0.44353    1.05281    0.75269   1.00
N1       0.46232    0.91395    0.75857   1.00
C6       0.47725    0.88556    0.78073   1.00
C6       0.46620    0.90256    0.72154   1.00
C6       0.49133    0.85590    0.75759   1.00
C6       0.48430    0.86670    0.71995   1.00
H3       0.47825    0.88638    0.81197   1.00
H3       0.45676    0.91941    0.69700   1.00
H3       0.50515    0.82934    0.76713   1.00
H3       0.49158    0.85028    0.69425   1.00
N1       0.48879    1.09327    0.74143   1.00
C6       0.49580    1.10305    0.77846   1.00
C6       0.51129    1.11613    0.71927   1.00
C6       0.52348    1.13215    0.78005   1.00
C6       0.53334    1.14046    0.74241   1.00
H3       0.48189    1.08965    0.80300   1.00
H3       0.51201    1.11506    0.68803   1.00
H3       0.53520    1.14577    0.80575   1.00
H3       0.55424    1.16189    0.73287   1.00
C4       0.50020    1.22915    0.50003   1.00
C4       0.49980    1.27085    0.49997   1.00
C3a      0.53065    1.20746    0.48163   1.00
C3       0.52306    1.29232    0.52630   1.00
C3       0.47033    1.20768    0.51852   1.00
C3a      0.47597    1.29254    0.47356   1.00
C2       0.49999    1.14488    0.50008   1.00
C2       0.49998    1.35512    0.50008   1.00
C3       0.53002    1.16595    0.48189   1.00
C3       0.52320    1.33363    0.52624   1.00
C3       0.47021    1.16637    0.51842   1.00
C3       0.47650    1.33405    0.47399   1.00
C5       0.56396    1.22772    0.46091   1.00
H1       0.54154    1.27691    0.54679   1.00
H1       0.55312    1.14979    0.46769   1.00
H1       0.54162    1.34901    0.54676   1.00
H1       0.44664    1.15099    0.53274   1.00
H1       0.45848    1.35021    0.45372   1.00
C5       0.45006    1.27228    0.44409   1.00
H1       0.44672    1.22309    0.53280   1.00
H2       0.44308    1.29256    0.41980   1.00
H2       0.46576    1.24731    0.43068   1.00
H2       0.57767    1.20744    0.43967   1.00
H2       0.55281    1.25269    0.44353   1.00
N1       0.41395    1.25857    0.46232   1.00
C6       0.38556    1.28073    0.47725   1.00
C6       0.40256    1.22154    0.46620   1.00
C6       0.35590    1.25759    0.49133   1.00
C6       0.36670    1.21995    0.48430   1.00
H3       0.38638    1.31197    0.47825   1.00
H3       0.41941    1.19700    0.45676   1.00
H3       0.32934    1.26713    0.50515   1.00
H3       0.35028    1.19425    0.49158   1.00
N1       0.59327    1.24143    0.48879   1.00
C6       0.60305    1.27846    0.49580   1.00
C6       0.61613    1.21927    0.51129   1.00
C6       0.63215    1.28005    0.52348   1.00
C6       0.64046    1.24241    0.53334   1.00
H3       0.58965    1.30300    0.48189   1.00
H3       0.61506    1.18803    0.51201   1.00
H3       0.64577    1.30575    0.53520   1.00
H3       0.66189    1.23287    0.55424   1.00
C4       0.27085    1.00003    0.49980   1.00
C4       0.22915    0.99997    0.50020   1.00
C3a      0.29254    0.98163    0.46935   1.00
C3       0.20768    1.02630    0.47694   1.00
C3       0.29232    1.01852    0.52967   1.00
C3a      0.20746    0.97356    0.52403   1.00
C2       0.35512    1.00008    0.50001   1.00
C2       0.14488    1.00008    0.50002   1.00
C3       0.33405    0.98189    0.46998   1.00
C3       0.16637    1.02624    0.47680   1.00
C3       0.33363    1.01842    0.52979   1.00
C3       0.16595    0.97399    0.52350   1.00
C5       0.27228    0.96091    0.43604   1.00
H1       0.22309    1.04679    0.45846   1.00
H1       0.35021    0.96769    0.44688   1.00
H1       0.15099    1.04676    0.45838   1.00
H1       0.34901    1.03274    0.55336   1.00
H1       0.14979    0.95372    0.54152   1.00
C5       0.22772    0.94409    0.54994   1.00
H1       0.27691    1.03280    0.55328   1.00
H2       0.20744    0.91980    0.55692   1.00
H2       0.25269    0.93068    0.53424   1.00
H2       0.29256    0.93967    0.42233   1.00
H2       0.24731    0.94353    0.44719   1.00
N1       0.24143    0.96232    0.58605   1.00
C6       0.21927    0.97725    0.61444   1.00
C6       0.27846    0.96620    0.59744   1.00
C6       0.24241    0.99133    0.64410   1.00
C6       0.28005    0.98430    0.63330   1.00
H3       0.18803    0.97825    0.61362   1.00
H3       0.30300    0.95676    0.58059   1.00
H3       0.23287    1.00515    0.67066   1.00
H3       0.30575    0.99158    0.64972   1.00
N1       0.25857    0.98879    0.40673   1.00
C6       0.22154    0.99580    0.39695   1.00
C6       0.28073    1.01129    0.38387   1.00
C6       0.21995    1.02348    0.36785   1.00
C6       0.25759    1.03334    0.35954   1.00
H3       0.19700    0.98189    0.41035   1.00
H3       0.31197    1.01201    0.38494   1.00
H3       0.19425    1.03520    0.35423   1.00
H3       0.26713    1.05424    0.33811   1.00
C4       0.72915    1.00003    0.50020   1.00
C4       0.77085    0.99997    0.49980   1.00
C3a      0.70746    0.98163    0.53065   1.00
C3       0.79232    1.02630    0.52306   1.00
C3       0.70768    1.01852    0.47033   1.00
C3a      0.79254    0.97356    0.47597   1.00
C2       0.64488    1.00008    0.49999   1.00
C2       0.85512    1.00008    0.49998   1.00
C3       0.66595    0.98189    0.53002   1.00
C3       0.83363    1.02624    0.52320   1.00
C3       0.66637    1.01842    0.47021   1.00
C3       0.83405    0.97399    0.47650   1.00
C5       0.72772    0.96091    0.56396   1.00
H1       0.77691    1.04679    0.54154   1.00
H1       0.64979    0.96769    0.55312   1.00
H1       0.84901    1.04676    0.54162   1.00
H1       0.65099    1.03274    0.44664   1.00
H1       0.85021    0.95372    0.45848   1.00
C5       0.77228    0.94409    0.45006   1.00
H1       0.72309    1.03280    0.44672   1.00
H2       0.79256    0.91980    0.44308   1.00
H2       0.74731    0.93068    0.46576   1.00
H2       0.70744    0.93967    0.57767   1.00
H2       0.75269    0.94353    0.55281   1.00
N1       0.75857    0.96232    0.41395   1.00
C6       0.78073    0.97725    0.38556   1.00
C6       0.72154    0.96620    0.40256   1.00
C6       0.75759    0.99133    0.35590   1.00
C6       0.71995    0.98430    0.36670   1.00
H3       0.81197    0.97825    0.38638   1.00
H3       0.69700    0.95676    0.41941   1.00
H3       0.76713    1.00515    0.32934   1.00
H3       0.69425    0.99158    0.35028   1.00
N1       0.74143    0.98879    0.59327   1.00
C6       0.77846    0.99580    0.60305   1.00
C6       0.71927    1.01129    0.61613   1.00
C6       0.78005    1.02348    0.63215   1.00
C6       0.74241    1.03334    0.64046   1.00
H3       0.80300    0.98189    0.58965   1.00
H3       0.68803    1.01201    0.61506   1.00
H3       0.80575    1.03520    0.64577   1.00
H3       0.73287    1.05424    0.66189   1.00
C4       0.49980    0.77085    0.50003   1.00
C4       0.50020    0.72915    0.49997   1.00
C3a      0.46935    0.79254    0.48163   1.00
C3       0.47694    0.70768    0.52630   1.00
C3       0.52967    0.79232    0.51852   1.00
C3a      0.52403    0.70746    0.47356   1.00
C2       0.50001    0.85512    0.50008   1.00
C2       0.50002    0.64488    0.50008   1.00
C3       0.46998    0.83405    0.48189   1.00
C3       0.47680    0.66637    0.52624   1.00
C3       0.52979    0.83363    0.51842   1.00
C3       0.52350    0.66595    0.47399   1.00
C5       0.43604    0.77228    0.46091   1.00
H1       0.45846    0.72309    0.54679   1.00
H1       0.44688    0.85021    0.46769   1.00
H1       0.45838    0.65099    0.54676   1.00
H1       0.55336    0.84901    0.53274   1.00
H1       0.54152    0.64979    0.45372   1.00
C5       0.54994    0.72772    0.44409   1.00
H1       0.55328    0.77691    0.53280   1.00
H2       0.55692    0.70744    0.41980   1.00
H2       0.53424    0.75269    0.43068   1.00
H2       0.42233    0.79256    0.43967   1.00
H2       0.44719    0.74731    0.44353   1.00
N1       0.58605    0.74143    0.46232   1.00
C6       0.61444    0.71927    0.47725   1.00
C6       0.59744    0.77846    0.46620   1.00
C6       0.64410    0.74241    0.49133   1.00
C6       0.63330    0.78005    0.48430   1.00
H3       0.61362    0.68803    0.47825   1.00
H3       0.58059    0.80300    0.45676   1.00
H3       0.67066    0.73287    0.50515   1.00
H3       0.64972    0.80575    0.49158   1.00
N1       0.40673    0.75857    0.48879   1.00
C6       0.39695    0.72154    0.49580   1.00
C6       0.38387    0.78073    0.51129   1.00
C6       0.36785    0.71995    0.52348   1.00
C6       0.35954    0.75759    0.53334   1.00
H3       0.41035    0.69700    0.48189   1.00
H3       0.38494    0.81197    0.51201   1.00
H3       0.35423    0.69425    0.53520   1.00
H3       0.33811    0.76713    0.55424   1.00
C4       0.50003    0.99980    0.27085   1.00
C4       0.49997    1.00020    0.22915   1.00
C3a      0.48163    0.96935    0.29254   1.00
C3       0.52630    0.97694    0.20768   1.00
C3       0.51852    1.02967    0.29232   1.00
C3a      0.47356    1.02403    0.20746   1.00
C2       0.50008    1.00001    0.35512   1.00
C2       0.50008    1.00002    0.14488   1.00
C3       0.48189    0.96998    0.33405   1.00
C3       0.52624    0.97680    0.16637   1.00
C3       0.51842    1.02979    0.33363   1.00
C3       0.47399    1.02350    0.16595   1.00
C5       0.46091    0.93604    0.27228   1.00
H1       0.54679    0.95846    0.22309   1.00
H1       0.46769    0.94688    0.35021   1.00
H1       0.54676    0.95838    0.15099   1.00
H1       0.53274    1.05336    0.34901   1.00
H1       0.45372    1.04152    0.14979   1.00
C5       0.44409    1.04994    0.22772   1.00
H1       0.53280    1.05328    0.27691   1.00
H2       0.41980    1.05692    0.20744   1.00
H2       0.43068    1.03424    0.25269   1.00
H2       0.43967    0.92233    0.29256   1.00
H2       0.44353    0.94719    0.24731   1.00
N1       0.46232    1.08605    0.24143   1.00
C6       0.47725    1.11444    0.21927   1.00
C6       0.46620    1.09744    0.27846   1.00
C6       0.49133    1.14410    0.24241   1.00
C6       0.48430    1.13330    0.28005   1.00
H3       0.47825    1.11362    0.18803   1.00
H3       0.45676    1.08059    0.30300   1.00
H3       0.50515    1.17066    0.23287   1.00
H3       0.49158    1.14972    0.30575   1.00
N1       0.48879    0.90673    0.25857   1.00
C6       0.49580    0.89695    0.22154   1.00
C6       0.51129    0.88387    0.28073   1.00
C6       0.52348    0.86785    0.21995   1.00
C6       0.53334    0.85954    0.25759   1.00
H3       0.48189    0.91035    0.19700   1.00
H3       0.51201    0.88494    0.31197   1.00
H3       0.53520    0.85423    0.19425   1.00
H3       0.55424    0.83811    0.26713   1.00
C4       1.00003    0.50020    0.72915   1.00
C4       0.99997    0.49980    0.77085   1.00
C3a      0.98163    0.53065    0.70746   1.00
C3       1.02630    0.52306    0.79232   1.00
C3       1.01852    0.47033    0.70768   1.00
C3a      0.97356    0.47597    0.79254   1.00
C2       1.00008    0.49999    0.64488   1.00
C2       1.00008    0.49998    0.85512   1.00
C3       0.98189    0.53002    0.66595   1.00
C3       1.02624    0.52320    0.83363   1.00
C3       1.01842    0.47021    0.66637   1.00
C3       0.97399    0.47650    0.83405   1.00
C5       0.96091    0.56396    0.72772   1.00
H1       1.04679    0.54154    0.77691   1.00
H1       0.96769    0.55312    0.64979   1.00
H1       1.04676    0.54162    0.84901   1.00
H1       1.03274    0.44664    0.65099   1.00
H1       0.95372    0.45848    0.85021   1.00
C5       0.94409    0.45006    0.77228   1.00
H1       1.03280    0.44672    0.72309   1.00
H2       0.91980    0.44308    0.79256   1.00
H2       0.93068    0.46576    0.74731   1.00
H2       0.93967    0.57767    0.70744   1.00
H2       0.94353    0.55281    0.75269   1.00
N1       0.96232    0.41395    0.75857   1.00
C6       0.97725    0.38556    0.78073   1.00
C6       0.96620    0.40256    0.72154   1.00
C6       0.99133    0.35590    0.75759   1.00
C6       0.98430    0.36670    0.71995   1.00
H3       0.97825    0.38638    0.81197   1.00
H3       0.95676    0.41941    0.69700   1.00
H3       1.00515    0.32934    0.76713   1.00
H3       0.99158    0.35028    0.69425   1.00
N1       0.98879    0.59327    0.74143   1.00
C6       0.99580    0.60305    0.77846   1.00
C6       1.01129    0.61613    0.71927   1.00
C6       1.02348    0.63215    0.78005   1.00
C6       1.03334    0.64046    0.74241   1.00
H3       0.98189    0.58965    0.80300   1.00
H3       1.01201    0.61506    0.68803   1.00
H3       1.03520    0.64577    0.80575   1.00
H3       1.05424    0.66189    0.73287   1.00
C4       1.00020    0.72915    0.50003   1.00
C4       0.99980    0.77085    0.49997   1.00
C3a      1.03065    0.70746    0.48163   1.00
C3       1.02306    0.79232    0.52630   1.00
C3       0.97033    0.70768    0.51852   1.00
C3a      0.97597    0.79254    0.47356   1.00
C2       0.99999    0.64488    0.50008   1.00
C2       0.99998    0.85512    0.50008   1.00
C3       1.03002    0.66595    0.48189   1.00
C3       1.02320    0.83363    0.52624   1.00
C3       0.97021    0.66637    0.51842   1.00
C3       0.97650    0.83405    0.47399   1.00
C5       1.06396    0.72772    0.46091   1.00
H1       1.04154    0.77691    0.54679   1.00
H1       1.05312    0.64979    0.46769   1.00
H1       1.04162    0.84901    0.54676   1.00
H1       0.94664    0.65099    0.53274   1.00
H1       0.95848    0.85021    0.45372   1.00
C5       0.95006    0.77228    0.44409   1.00
H1       0.94672    0.72309    0.53280   1.00
H2       0.94308    0.79256    0.41980   1.00
H2       0.96576    0.74731    0.43068   1.00
H2       1.07767    0.70744    0.43967   1.00
H2       1.05281    0.75269    0.44353   1.00
N1       0.91395    0.75857    0.46232   1.00
C6       0.88556    0.78073    0.47725   1.00
C6       0.90256    0.72154    0.46620   1.00
C6       0.85590    0.75759    0.49133   1.00
C6       0.86670    0.71995    0.48430   1.00
H3       0.88638    0.81197    0.47825   1.00
H3       0.91941    0.69700    0.45676   1.00
H3       0.82934    0.76713    0.50515   1.00
H3       0.85028    0.69425    0.49158   1.00
N1       1.09327    0.74143    0.48879   1.00
C6       1.10305    0.77846    0.49580   1.00
C6       1.11613    0.71927    0.51129   1.00
C6       1.13215    0.78005    0.52348   1.00
C6       1.14046    0.74241    0.53334   1.00
H3       1.08965    0.80300    0.48189   1.00
H3       1.11506    0.68803    0.51201   1.00
H3       1.14577    0.80575    0.53520   1.00
H3       1.16189    0.73287    0.55424   1.00
C4       0.77085    0.50003    0.49980   1.00
C4       0.72915    0.49997    0.50020   1.00
C3a      0.79254    0.48163    0.46935   1.00
C3       0.70768    0.52630    0.47694   1.00
C3       0.79232    0.51852    0.52967   1.00
C3a      0.70746    0.47356    0.52403   1.00
C2       0.85512    0.50008    0.50001   1.00
C2       0.64488    0.50008    0.50002   1.00
C3       0.83405    0.48189    0.46998   1.00
C3       0.66637    0.52624    0.47680   1.00
C3       0.83363    0.51842    0.52979   1.00
C3       0.66595    0.47399    0.52350   1.00
C5       0.77228    0.46091    0.43604   1.00
H1       0.72309    0.54679    0.45846   1.00
H1       0.85021    0.46769    0.44688   1.00
H1       0.65099    0.54676    0.45838   1.00
H1       0.84901    0.53274    0.55336   1.00
H1       0.64979    0.45372    0.54152   1.00
C5       0.72772    0.44409    0.54994   1.00
H1       0.77691    0.53280    0.55328   1.00
H2       0.70744    0.41980    0.55692   1.00
H2       0.75269    0.43068    0.53424   1.00
H2       0.79256    0.43967    0.42233   1.00
H2       0.74731    0.44353    0.44719   1.00
N1       0.74143    0.46232    0.58605   1.00
C6       0.71927    0.47725    0.61444   1.00
C6       0.77846    0.46620    0.59744   1.00
C6       0.74241    0.49133    0.64410   1.00
C6       0.78005    0.48430    0.63330   1.00
H3       0.68803    0.47825    0.61362   1.00
H3       0.80300    0.45676    0.58059   1.00
H3       0.73287    0.50515    0.67066   1.00
H3       0.80575    0.49158    0.64972   1.00
N1       0.75857    0.48879    0.40673   1.00
C6       0.72154    0.49580    0.39695   1.00
C6       0.78073    0.51129    0.38387   1.00
C6       0.71995    0.52348    0.36785   1.00
C6       0.75759    0.53334    0.35954   1.00
H3       0.69700    0.48189    0.41035   1.00
H3       0.81197    0.51201    0.38494   1.00
H3       0.69425    0.53520    0.35423   1.00
H3       0.76713    0.55424    0.33811   1.00
C4       1.22915    0.50003    0.50020   1.00
C4       1.27085    0.49997    0.49980   1.00
C3a      1.20746    0.48163    0.53065   1.00
C3       1.29232    0.52630    0.52306   1.00
C3       1.20768    0.51852    0.47033   1.00
C3a      1.29254    0.47356    0.47597   1.00
C2       1.14488    0.50008    0.49999   1.00
C2       1.35512    0.50008    0.49998   1.00
C3       1.16595    0.48189    0.53002   1.00
C3       1.33363    0.52624    0.52320   1.00
C3       1.16637    0.51842    0.47021   1.00
C3       1.33405    0.47399    0.47650   1.00
C5       1.22772    0.46091    0.56396   1.00
H1       1.27691    0.54679    0.54154   1.00
H1       1.14979    0.46769    0.55312   1.00
H1       1.34901    0.54676    0.54162   1.00
H1       1.15099    0.53274    0.44664   1.00
H1       1.35021    0.45372    0.45848   1.00
C5       1.27228    0.44409    0.45006   1.00
H1       1.22309    0.53280    0.44672   1.00
H2       1.29256    0.41980    0.44308   1.00
H2       1.24731    0.43068    0.46576   1.00
H2       1.20744    0.43967    0.57767   1.00
H2       1.25269    0.44353    0.55281   1.00
N1       1.25857    0.46232    0.41395   1.00
C6       1.28073    0.47725    0.38556   1.00
C6       1.22154    0.46620    0.40256   1.00
C6       1.25759    0.49133    0.35590   1.00
C6       1.21995    0.48430    0.36670   1.00
H3       1.31197    0.47825    0.38638   1.00
H3       1.19700    0.45676    0.41941   1.00
H3       1.26713    0.50515    0.32934   1.00
H3       1.19425    0.49158    0.35028   1.00
N1       1.24143    0.48879    0.59327   1.00
C6       1.27846    0.49580    0.60305   1.00
C6       1.21927    0.51129    0.61613   1.00
C6       1.28005    0.52348    0.63215   1.00
C6       1.24241    0.53334    0.64046   1.00
H3       1.30300    0.48189    0.58965   1.00
H3       1.18803    0.51201    0.61506   1.00
H3       1.30575    0.53520    0.64577   1.00
H3       1.23287    0.55424    0.66189   1.00
C4       0.99980    0.27085    0.50003   1.00
C4       1.00020    0.22915    0.49997   1.00
C3a      0.96935    0.29254    0.48163   1.00
C3       0.97694    0.20768    0.52630   1.00
C3       1.02967    0.29232    0.51852   1.00
C3a      1.02403    0.20746    0.47356   1.00
C2       1.00001    0.35512    0.50008   1.00
C2       1.00002    0.14488    0.50008   1.00
C3       0.96998    0.33405    0.48189   1.00
C3       0.97680    0.16637    0.52624   1.00
C3       1.02979    0.33363    0.51842   1.00
C3       1.02350    0.16595    0.47399   1.00
C5       0.93604    0.27228    0.46091   1.00
H1       0.95846    0.22309    0.54679   1.00
H1       0.94688    0.35021    0.46769   1.00
H1       0.95838    0.15099    0.54676   1.00
H1       1.05336    0.34901    0.53274   1.00
H1       1.04152    0.14979    0.45372   1.00
C5       1.04994    0.22772    0.44409   1.00
H1       1.05328    0.27691    0.53280   1.00
H2       1.05692    0.20744    0.41980   1.00
H2       1.03424    0.25269    0.43068   1.00
H2       0.92233    0.29256    0.43967   1.00
H2       0.94719    0.24731    0.44353   1.00
N1       1.08605    0.24143    0.46232   1.00
C6       1.11444    0.21927    0.47725   1.00
C6       1.09744    0.27846    0.46620   1.00
C6       1.14410    0.24241    0.49133   1.00
C6       1.13330    0.28005    0.48430   1.00
H3       1.11362    0.18803    0.47825   1.00
H3       1.08059    0.30300    0.45676   1.00
H3       1.17066    0.23287    0.50515   1.00
H3       1.14972    0.30575    0.49158   1.00
N1       0.90673    0.25857    0.48879   1.00
C6       0.89695    0.22154    0.49580   1.00
C6       0.88387    0.28073    0.51129   1.00
C6       0.86785    0.21995    0.52348   1.00
C6       0.85954    0.25759    0.53334   1.00
H3       0.91035    0.19700    0.48189   1.00
H3       0.88494    0.31197    0.51201   1.00
H3       0.85423    0.19425    0.53520   1.00
H3       0.83811    0.26713    0.55424   1.00
C4       1.00003    0.49980    0.27085   1.00
C4       0.99997    0.50020    0.22915   1.00
C3a      0.98163    0.46935    0.29254   1.00
C3       1.02630    0.47694    0.20768   1.00
C3       1.01852    0.52967    0.29232   1.00
C3a      0.97356    0.52403    0.20746   1.00
C2       1.00008    0.50001    0.35512   1.00
C2       1.00008    0.50002    0.14488   1.00
C3       0.98189    0.46998    0.33405   1.00
C3       1.02624    0.47680    0.16637   1.00
C3       1.01842    0.52979    0.33363   1.00
C3       0.97399    0.52350    0.16595   1.00
C5       0.96091    0.43604    0.27228   1.00
H1       1.04679    0.45846    0.22309   1.00
H1       0.96769    0.44688    0.35021   1.00
H1       1.04676    0.45838    0.15099   1.00
H1       1.03274    0.55336    0.34901   1.00
H1       0.95372    0.54152    0.14979   1.00
C5       0.94409    0.54994    0.22772   1.00
H1       1.03280    0.55328    0.27691   1.00
H2       0.91980    0.55692    0.20744   1.00
H2       0.93068    0.53424    0.25269   1.00
H2       0.93967    0.42233    0.29256   1.00
H2       0.94353    0.44719    0.24731   1.00
N1       0.96232    0.58605    0.24143   1.00
C6       0.97725    0.61444    0.21927   1.00
C6       0.96620    0.59744    0.27846   1.00
C6       0.99133    0.64410    0.24241   1.00
C6       0.98430    0.63330    0.28005   1.00
H3       0.97825    0.61362    0.18803   1.00
H3       0.95676    0.58059    0.30300   1.00
H3       1.00515    0.67066    0.23287   1.00
H3       0.99158    0.64972    0.30575   1.00
N1       0.98879    0.40673    0.25857   1.00
C6       0.99580    0.39695    0.22154   1.00
C6       1.01129    0.38387    0.28073   1.00
C6       1.02348    0.36785    0.21995   1.00
C6       1.03334    0.35954    0.25759   1.00
H3       0.98189    0.41035    0.19700   1.00
H3       1.01201    0.38494    0.31197   1.00
H3       1.03520    0.35423    0.19425   1.00
H3       1.05424    0.33811    0.26713   1.00
