data_IRMOF10_SG202_interpen_Ligand8lp_label_e.

_audit_creation_method             'generated by an auxiliary program of Tobunporous'

_symmetry_space_group_name_H-M     'P 1'
_symmetry_Int_Tables_number        1
_symmetry_cell_setting             triclinic

_cell_length_a                    34.2800
_cell_length_b                    34.2800
_cell_length_c                    34.2800
_cell_angle_alpha                 90.0000
_cell_angle_beta                  90.0000
_cell_angle_gamma                 90.0000

loop_
_atom_site_label
_atom_site_fract_x
_atom_site_fract_y
_atom_site_fract_z
_atom_site_occupancy
O1       0.75000    0.75000    0.75000   1.00
Zn1      0.71720    0.78280    0.78280   1.00
Zn1      0.78280    0.71720    0.78280   1.00
Zn1      0.78280    0.78280    0.71720   1.00
Zn1      0.71720    0.71720    0.71720   1.00
O2       0.72650    0.77350    0.83820   1.00
O2       0.72650    0.83820    0.77350   1.00
O2       0.66180    0.77350    0.77350   1.00
O2       0.77350    0.72650    0.83820   1.00
O2       0.83820    0.72650    0.77350   1.00
O2       0.77350    0.66180    0.77350   1.00
O2       0.77350    0.83820    0.72650   1.00
O2       0.83820    0.77350    0.72650   1.00
O2       0.77350    0.77350    0.66180   1.00
O2       0.66180    0.72650    0.72650   1.00
O2       0.72650    0.66180    0.72650   1.00
O2       0.72650    0.72650    0.66180   1.00
C1       0.75000    0.75000    0.85520   1.00
C1       0.75000    0.85520    0.75000   1.00
C1       0.64480    0.75000    0.75000   1.00
C1       0.85520    0.75000    0.75000   1.00
C1       0.75000    0.64480    0.75000   1.00
C1       0.75000    0.75000    0.64480   1.00
O1       0.25000    0.25000    0.75000   1.00
Zn1      0.21720    0.28280    0.78280   1.00
Zn1      0.28280    0.21720    0.78280   1.00
Zn1      0.28280    0.28280    0.71720   1.00
Zn1      0.21720    0.21720    0.71720   1.00
O2       0.22650    0.27350    0.83820   1.00
O2       0.22650    0.33820    0.77350   1.00
O2       0.16180    0.27350    0.77350   1.00
O2       0.27350    0.22650    0.83820   1.00
O2       0.33820    0.22650    0.77350   1.00
O2       0.27350    0.16180    0.77350   1.00
O2       0.27350    0.33820    0.72650   1.00
O2       0.33820    0.27350    0.72650   1.00
O2       0.27350    0.27350    0.66180   1.00
O2       0.16180    0.22650    0.72650   1.00
O2       0.22650    0.16180    0.72650   1.00
O2       0.22650    0.22650    0.66180   1.00
C1       0.25000    0.25000    0.85520   1.00
C1       0.25000    0.35520    0.75000   1.00
C1       0.14480    0.25000    0.75000   1.00
C1       0.35520    0.25000    0.75000   1.00
C1       0.25000    0.14480    0.75000   1.00
C1       0.25000    0.25000    0.64480   1.00
O1       0.25000    0.75000    0.25000   1.00
Zn1      0.21720    0.78280    0.28280   1.00
Zn1      0.28280    0.71720    0.28280   1.00
Zn1      0.28280    0.78280    0.21720   1.00
Zn1      0.21720    0.71720    0.21720   1.00
O2       0.22650    0.77350    0.33820   1.00
O2       0.22650    0.83820    0.27350   1.00
O2       0.16180    0.77350    0.27350   1.00
O2       0.27350    0.72650    0.33820   1.00
O2       0.33820    0.72650    0.27350   1.00
O2       0.27350    0.66180    0.27350   1.00
O2       0.27350    0.83820    0.22650   1.00
O2       0.33820    0.77350    0.22650   1.00
O2       0.27350    0.77350    0.16180   1.00
O2       0.16180    0.72650    0.22650   1.00
O2       0.22650    0.66180    0.22650   1.00
O2       0.22650    0.72650    0.16180   1.00
C1       0.25000    0.75000    0.35520   1.00
C1       0.25000    0.85520    0.25000   1.00
C1       0.14480    0.75000    0.25000   1.00
C1       0.35520    0.75000    0.25000   1.00
C1       0.25000    0.64480    0.25000   1.00
C1       0.25000    0.75000    0.14480   1.00
O1       0.75000    0.25000    0.25000   1.00
Zn1      0.71720    0.28280    0.28280   1.00
Zn1      0.78280    0.21720    0.28280   1.00
Zn1      0.78280    0.28280    0.21720   1.00
Zn1      0.71720    0.21720    0.21720   1.00
O2       0.72650    0.27350    0.33820   1.00
O2       0.72650    0.33820    0.27350   1.00
O2       0.66180    0.27350    0.27350   1.00
O2       0.77350    0.22650    0.33820   1.00
O2       0.83820    0.22650    0.27350   1.00
O2       0.77350    0.16180    0.27350   1.00
O2       0.77350    0.33820    0.22650   1.00
O2       0.83820    0.27350    0.22650   1.00
O2       0.77350    0.27350    0.16180   1.00
O2       0.66180    0.22650    0.22650   1.00
O2       0.72650    0.16180    0.22650   1.00
O2       0.72650    0.22650    0.16180   1.00
C1       0.75000    0.25000    0.35520   1.00
C1       0.75000    0.35520    0.25000   1.00
C1       0.64480    0.25000    0.25000   1.00
C1       0.85520    0.25000    0.25000   1.00
C1       0.75000    0.14480    0.25000   1.00
C1       0.75000    0.25000    0.14480   1.00
O1       0.25000    0.25000    0.25000   1.00
Zn1      0.28280    0.21720    0.21720   1.00
Zn1      0.21720    0.28280    0.21720   1.00
Zn1      0.21720    0.21720    0.28280   1.00
Zn1      0.28280    0.28280    0.28280   1.00
O2       0.27350    0.22650    0.16180   1.00
O2       0.27350    0.16180    0.22650   1.00
O2       0.33820    0.22650    0.22650   1.00
O2       0.22650    0.27350    0.16180   1.00
O2       0.16180    0.27350    0.22650   1.00
O2       0.22650    0.33820    0.22650   1.00
O2       0.22650    0.16180    0.27350   1.00
O2       0.16180    0.22650    0.27350   1.00
O2       0.22650    0.22650    0.33820   1.00
O2       0.33820    0.27350    0.27350   1.00
O2       0.27350    0.33820    0.27350   1.00
O2       0.27350    0.27350    0.33820   1.00
C1       0.25000    0.25000    0.14480   1.00
C1       0.25000    0.14480    0.25000   1.00
C1       0.35520    0.25000    0.25000   1.00
C1       0.14480    0.25000    0.25000   1.00
C1       0.25000    0.35520    0.25000   1.00
C1       0.25000    0.25000    0.35520   1.00
O1       0.75000    0.75000    0.25000   1.00
Zn1      0.78280    0.71720    0.21720   1.00
Zn1      0.71720    0.78280    0.21720   1.00
Zn1      0.71720    0.71720    0.28280   1.00
Zn1      0.78280    0.78280    0.28280   1.00
O2       0.77350    0.72650    0.16180   1.00
O2       0.77350    0.66180    0.22650   1.00
O2       0.83820    0.72650    0.22650   1.00
O2       0.72650    0.77350    0.16180   1.00
O2       0.66180    0.77350    0.22650   1.00
O2       0.72650    0.83820    0.22650   1.00
O2       0.72650    0.66180    0.27350   1.00
O2       0.66180    0.72650    0.27350   1.00
O2       0.72650    0.72650    0.33820   1.00
O2       0.83820    0.77350    0.27350   1.00
O2       0.77350    0.83820    0.27350   1.00
O2       0.77350    0.77350    0.33820   1.00
C1       0.75000    0.75000    0.14480   1.00
C1       0.75000    0.64480    0.25000   1.00
C1       0.85520    0.75000    0.25000   1.00
C1       0.64480    0.75000    0.25000   1.00
C1       0.75000    0.85520    0.25000   1.00
C1       0.75000    0.75000    0.35520   1.00
O1       0.75000    0.25000    0.75000   1.00
Zn1      0.78280    0.21720    0.71720   1.00
Zn1      0.71720    0.28280    0.71720   1.00
Zn1      0.71720    0.21720    0.78280   1.00
Zn1      0.78280    0.28280    0.78280   1.00
O2       0.77350    0.22650    0.66180   1.00
O2       0.77350    0.16180    0.72650   1.00
O2       0.83820    0.22650    0.72650   1.00
O2       0.72650    0.27350    0.66180   1.00
O2       0.66180    0.27350    0.72650   1.00
O2       0.72650    0.33820    0.72650   1.00
O2       0.72650    0.16180    0.77350   1.00
O2       0.66180    0.22650    0.77350   1.00
O2       0.72650    0.22650    0.83820   1.00
O2       0.83820    0.27350    0.77350   1.00
O2       0.77350    0.33820    0.77350   1.00
O2       0.77350    0.27350    0.83820   1.00
C1       0.75000    0.25000    0.64480   1.00
C1       0.75000    0.14480    0.75000   1.00
C1       0.85520    0.25000    0.75000   1.00
C1       0.64480    0.25000    0.75000   1.00
C1       0.75000    0.35520    0.75000   1.00
C1       0.75000    0.25000    0.85520   1.00
O1       0.25000    0.75000    0.75000   1.00
Zn1      0.28280    0.71720    0.71720   1.00
Zn1      0.21720    0.78280    0.71720   1.00
Zn1      0.21720    0.71720    0.78280   1.00
Zn1      0.28280    0.78280    0.78280   1.00
O2       0.27350    0.72650    0.66180   1.00
O2       0.27350    0.66180    0.72650   1.00
O2       0.33820    0.72650    0.72650   1.00
O2       0.22650    0.77350    0.66180   1.00
O2       0.16180    0.77350    0.72650   1.00
O2       0.22650    0.83820    0.72650   1.00
O2       0.22650    0.66180    0.77350   1.00
O2       0.16180    0.72650    0.77350   1.00
O2       0.22650    0.72650    0.83820   1.00
O2       0.33820    0.77350    0.77350   1.00
O2       0.27350    0.83820    0.77350   1.00
O2       0.27350    0.77350    0.83820   1.00
C1       0.25000    0.75000    0.64480   1.00
C1       0.25000    0.64480    0.75000   1.00
C1       0.35520    0.75000    0.75000   1.00
C1       0.14480    0.75000    0.75000   1.00
C1       0.25000    0.85520    0.75000   1.00
C1       0.25000    0.75000    0.85520   1.00
O1       1.00000    1.00000    1.00000   1.00
Zn1      0.96720    1.03280    1.03280   1.00
Zn1      1.03280    0.96720    1.03280   1.00
Zn1      1.03280    1.03280    0.96720   1.00
Zn1      0.96720    0.96720    0.96720   1.00
O2       0.97650    1.02350    1.08820   1.00
O2       0.97650    1.08820    1.02350   1.00
O2       0.91180    1.02350    1.02350   1.00
O2       1.02350    0.97650    1.08820   1.00
O2       1.08820    0.97650    1.02350   1.00
O2       1.02350    0.91180    1.02350   1.00
O2       1.02350    1.08820    0.97650   1.00
O2       1.08820    1.02350    0.97650   1.00
O2       1.02350    1.02350    0.91180   1.00
O2       0.91180    0.97650    0.97650   1.00
O2       0.97650    0.91180    0.97650   1.00
O2       0.97650    0.97650    0.91180   1.00
C1       1.00000    1.00000    1.10520   1.00
C1       1.00000    1.10520    1.00000   1.00
C1       0.89480    1.00000    1.00000   1.00
C1       1.10520    1.00000    1.00000   1.00
C1       1.00000    0.89480    1.00000   1.00
C1       1.00000    1.00000    0.89480   1.00
O1       0.50000    0.50000    1.00000   1.00
Zn1      0.46720    0.53280    1.03280   1.00
Zn1      0.53280    0.46720    1.03280   1.00
Zn1      0.53280    0.53280    0.96720   1.00
Zn1      0.46720    0.46720    0.96720   1.00
O2       0.47650    0.52350    1.08820   1.00
O2       0.47650    0.58820    1.02350   1.00
O2       0.41180    0.52350    1.02350   1.00
O2       0.52350    0.47650    1.08820   1.00
O2       0.58820    0.47650    1.02350   1.00
O2       0.52350    0.41180    1.02350   1.00
O2       0.52350    0.58820    0.97650   1.00
O2       0.58820    0.52350    0.97650   1.00
O2       0.52350    0.52350    0.91180   1.00
O2       0.41180    0.47650    0.97650   1.00
O2       0.47650    0.41180    0.97650   1.00
O2       0.47650    0.47650    0.91180   1.00
C1       0.50000    0.50000    1.10520   1.00
C1       0.50000    0.60520    1.00000   1.00
C1       0.39480    0.50000    1.00000   1.00
C1       0.60520    0.50000    1.00000   1.00
C1       0.50000    0.39480    1.00000   1.00
C1       0.50000    0.50000    0.89480   1.00
O1       0.50000    1.00000    0.50000   1.00
Zn1      0.46720    1.03280    0.53280   1.00
Zn1      0.53280    0.96720    0.53280   1.00
Zn1      0.53280    1.03280    0.46720   1.00
Zn1      0.46720    0.96720    0.46720   1.00
O2       0.47650    1.02350    0.58820   1.00
O2       0.47650    1.08820    0.52350   1.00
O2       0.41180    1.02350    0.52350   1.00
O2       0.52350    0.97650    0.58820   1.00
O2       0.58820    0.97650    0.52350   1.00
O2       0.52350    0.91180    0.52350   1.00
O2       0.52350    1.08820    0.47650   1.00
O2       0.58820    1.02350    0.47650   1.00
O2       0.52350    1.02350    0.41180   1.00
O2       0.41180    0.97650    0.47650   1.00
O2       0.47650    0.91180    0.47650   1.00
O2       0.47650    0.97650    0.41180   1.00
C1       0.50000    1.00000    0.60520   1.00
C1       0.50000    1.10520    0.50000   1.00
C1       0.39480    1.00000    0.50000   1.00
C1       0.60520    1.00000    0.50000   1.00
C1       0.50000    0.89480    0.50000   1.00
C1       0.50000    1.00000    0.39480   1.00
O1       1.00000    0.50000    0.50000   1.00
Zn1      0.96720    0.53280    0.53280   1.00
Zn1      1.03280    0.46720    0.53280   1.00
Zn1      1.03280    0.53280    0.46720   1.00
Zn1      0.96720    0.46720    0.46720   1.00
O2       0.97650    0.52350    0.58820   1.00
O2       0.97650    0.58820    0.52350   1.00
O2       0.91180    0.52350    0.52350   1.00
O2       1.02350    0.47650    0.58820   1.00
O2       1.08820    0.47650    0.52350   1.00
O2       1.02350    0.41180    0.52350   1.00
O2       1.02350    0.58820    0.47650   1.00
O2       1.08820    0.52350    0.47650   1.00
O2       1.02350    0.52350    0.41180   1.00
O2       0.91180    0.47650    0.47650   1.00
O2       0.97650    0.41180    0.47650   1.00
O2       0.97650    0.47650    0.41180   1.00
C1       1.00000    0.50000    0.60520   1.00
C1       1.00000    0.60520    0.50000   1.00
C1       0.89480    0.50000    0.50000   1.00
C1       1.10520    0.50000    0.50000   1.00
C1       1.00000    0.39480    0.50000   1.00
C1       1.00000    0.50000    0.39480   1.00
O1       0.50000    0.50000    0.50000   1.00
Zn1      0.53280    0.46720    0.46720   1.00
Zn1      0.46720    0.53280    0.46720   1.00
Zn1      0.46720    0.46720    0.53280   1.00
Zn1      0.53280    0.53280    0.53280   1.00
O2       0.52350    0.47650    0.41180   1.00
O2       0.52350    0.41180    0.47650   1.00
O2       0.58820    0.47650    0.47650   1.00
O2       0.47650    0.52350    0.41180   1.00
O2       0.41180    0.52350    0.47650   1.00
O2       0.47650    0.58820    0.47650   1.00
O2       0.47650    0.41180    0.52350   1.00
O2       0.41180    0.47650    0.52350   1.00
O2       0.47650    0.47650    0.58820   1.00
O2       0.58820    0.52350    0.52350   1.00
O2       0.52350    0.58820    0.52350   1.00
O2       0.52350    0.52350    0.58820   1.00
C1       0.50000    0.50000    0.39480   1.00
C1       0.50000    0.39480    0.50000   1.00
C1       0.60520    0.50000    0.50000   1.00
C1       0.39480    0.50000    0.50000   1.00
C1       0.50000    0.60520    0.50000   1.00
C1       0.50000    0.50000    0.60520   1.00
O1       1.00000    1.00000    0.50000   1.00
Zn1      1.03280    0.96720    0.46720   1.00
Zn1      0.96720    1.03280    0.46720   1.00
Zn1      0.96720    0.96720    0.53280   1.00
Zn1      1.03280    1.03280    0.53280   1.00
O2       1.02350    0.97650    0.41180   1.00
O2       1.02350    0.91180    0.47650   1.00
O2       1.08820    0.97650    0.47650   1.00
O2       0.97650    1.02350    0.41180   1.00
O2       0.91180    1.02350    0.47650   1.00
O2       0.97650    1.08820    0.47650   1.00
O2       0.97650    0.91180    0.52350   1.00
O2       0.91180    0.97650    0.52350   1.00
O2       0.97650    0.97650    0.58820   1.00
O2       1.08820    1.02350    0.52350   1.00
O2       1.02350    1.08820    0.52350   1.00
O2       1.02350    1.02350    0.58820   1.00
C1       1.00000    1.00000    0.39480   1.00
C1       1.00000    0.89480    0.50000   1.00
C1       1.10520    1.00000    0.50000   1.00
C1       0.89480    1.00000    0.50000   1.00
C1       1.00000    1.10520    0.50000   1.00
C1       1.00000    1.00000    0.60520   1.00
O1       1.00000    0.50000    1.00000   1.00
Zn1      1.03280    0.46720    0.96720   1.00
Zn1      0.96720    0.53280    0.96720   1.00
Zn1      0.96720    0.46720    1.03280   1.00
Zn1      1.03280    0.53280    1.03280   1.00
O2       1.02350    0.47650    0.91180   1.00
O2       1.02350    0.41180    0.97650   1.00
O2       1.08820    0.47650    0.97650   1.00
O2       0.97650    0.52350    0.91180   1.00
O2       0.91180    0.52350    0.97650   1.00
O2       0.97650    0.58820    0.97650   1.00
O2       0.97650    0.41180    1.02350   1.00
O2       0.91180    0.47650    1.02350   1.00
O2       0.97650    0.47650    1.08820   1.00
O2       1.08820    0.52350    1.02350   1.00
O2       1.02350    0.58820    1.02350   1.00
O2       1.02350    0.52350    1.08820   1.00
C1       1.00000    0.50000    0.89480   1.00
C1       1.00000    0.39480    1.00000   1.00
C1       1.10520    0.50000    1.00000   1.00
C1       0.89480    0.50000    1.00000   1.00
C1       1.00000    0.60520    1.00000   1.00
C1       1.00000    0.50000    1.10520   1.00
O1       0.50000    1.00000    1.00000   1.00
Zn1      0.53280    0.96720    0.96720   1.00
Zn1      0.46720    1.03280    0.96720   1.00
Zn1      0.46720    0.96720    1.03280   1.00
Zn1      0.53280    1.03280    1.03280   1.00
O2       0.52350    0.97650    0.91180   1.00
O2       0.52350    0.91180    0.97650   1.00
O2       0.58820    0.97650    0.97650   1.00
O2       0.47650    1.02350    0.91180   1.00
O2       0.41180    1.02350    0.97650   1.00
O2       0.47650    1.08820    0.97650   1.00
O2       0.47650    0.91180    1.02350   1.00
O2       0.41180    0.97650    1.02350   1.00
O2       0.47650    0.97650    1.08820   1.00
O2       0.58820    1.02350    1.02350   1.00
O2       0.52350    1.08820    1.02350   1.00
O2       0.52350    1.02350    1.08820   1.00
C1       0.50000    1.00000    0.89480   1.00
C1       0.50000    0.89480    1.00000   1.00
C1       0.60520    1.00000    1.00000   1.00
C1       0.39480    1.00000    1.00000   1.00
C1       0.50000    1.10520    1.00000   1.00
C1       0.50000    1.00000    1.10520   1.00
C4       0.75007    0.75007    0.97915   1.00
C4       0.74993    0.74993    1.02085   1.00
C3       0.74941    0.78485    0.95708   1.00
C3       0.78448    0.74321    1.04225   1.00
C3       0.75092    0.71460    0.95816   1.00
C3a      0.71511    0.75708    1.04263   1.00
C2       0.74971    0.74852    0.89483   1.00
C2       0.75059    0.75135    1.10517   1.00
C3       0.74922    0.78402    0.91566   1.00
C3       0.78474    0.74394    1.08359   1.00
C3       0.75057    0.71386    0.91680   1.00
C3       0.71602    0.75780    1.08415   1.00
H1       0.74902    0.81273    0.97192   1.00
H1       0.81152    0.73765    1.02685   1.00
H1       0.74863    0.81125    0.89968   1.00
H1       0.81186    0.73875    1.09895   1.00
H1       0.75069    0.68606    0.90179   1.00
H1       0.68947    0.76311    1.10043   1.00
C5       0.67632    0.76324    1.02239   1.00
H1       0.75081    0.68727    0.97401   1.00
H2       0.65344    0.77224    1.04354   1.00
H2       0.67911    0.78747    1.00103   1.00
N1       0.66359    0.72742    1.00292   1.00
C6       0.65697    0.69272    1.02012   1.00
C6       0.65598    0.72327    0.96460   1.00
C6       0.64535    0.66595    0.99243   1.00
C6       0.64474    0.68538    0.95711   1.00
H3       0.66060    0.68702    1.05099   1.00
H3       0.65888    0.74624    0.94309   1.00
H3       0.63810    0.63565    0.99741   1.00
H3       0.63700    0.67327    0.92903   1.00
C4       0.75007    0.97915    0.75007   1.00
C4       0.74993    1.02085    0.74993   1.00
C3       0.78485    0.95708    0.74941   1.00
C3       0.74321    1.04225    0.78448   1.00
C3       0.71460    0.95816    0.75092   1.00
C3a      0.75708    1.04263    0.71511   1.00
C2       0.74852    0.89483    0.74971   1.00
C2       0.75135    1.10517    0.75059   1.00
C3       0.78402    0.91566    0.74922   1.00
C3       0.74394    1.08359    0.78474   1.00
C3       0.71386    0.91680    0.75057   1.00
C3       0.75780    1.08415    0.71602   1.00
H1       0.81273    0.97192    0.74902   1.00
H1       0.73765    1.02685    0.81152   1.00
H1       0.81125    0.89968    0.74863   1.00
H1       0.73875    1.09895    0.81186   1.00
H1       0.68606    0.90179    0.75069   1.00
H1       0.76311    1.10043    0.68947   1.00
C5       0.76324    1.02239    0.67632   1.00
H1       0.68727    0.97401    0.75081   1.00
H2       0.77224    1.04354    0.65344   1.00
H2       0.78747    1.00103    0.67911   1.00
N1       0.72742    1.00292    0.66359   1.00
C6       0.69272    1.02012    0.65697   1.00
C6       0.72327    0.96460    0.65598   1.00
C6       0.66595    0.99243    0.64535   1.00
C6       0.68538    0.95711    0.64474   1.00
H3       0.68702    1.05099    0.66060   1.00
H3       0.74624    0.94309    0.65888   1.00
H3       0.63565    0.99741    0.63810   1.00
H3       0.67327    0.92903    0.63700   1.00
C4       0.52085    0.75007    0.74993   1.00
C4       0.47915    0.74993    0.75007   1.00
C3       0.54292    0.74941    0.71515   1.00
C3       0.45775    0.78448    0.75679   1.00
C3       0.54184    0.75092    0.78540   1.00
C3a      0.45737    0.71511    0.74292   1.00
C2       0.60517    0.74971    0.75148   1.00
C2       0.39483    0.75059    0.74865   1.00
C3       0.58434    0.74922    0.71598   1.00
C3       0.41641    0.78474    0.75606   1.00
C3       0.58320    0.75057    0.78614   1.00
C3       0.41585    0.71602    0.74220   1.00
H1       0.52808    0.74902    0.68727   1.00
H1       0.47315    0.81152    0.76235   1.00
H1       0.60032    0.74863    0.68875   1.00
H1       0.40105    0.81186    0.76125   1.00
H1       0.59821    0.75069    0.81394   1.00
H1       0.39957    0.68947    0.73689   1.00
C5       0.47761    0.67632    0.73676   1.00
H1       0.52599    0.75081    0.81273   1.00
H2       0.45646    0.65344    0.72776   1.00
H2       0.49897    0.67911    0.71253   1.00
N1       0.49708    0.66359    0.77258   1.00
C6       0.47988    0.65697    0.80728   1.00
C6       0.53540    0.65598    0.77673   1.00
C6       0.50757    0.64535    0.83405   1.00
C6       0.54289    0.64474    0.81462   1.00
H3       0.44901    0.66060    0.81298   1.00
H3       0.55691    0.65888    0.75376   1.00
H3       0.50259    0.63810    0.86435   1.00
H3       0.57097    0.63700    0.82673   1.00
C4       0.97915    0.75007    0.75007   1.00
C4       1.02085    0.74993    0.74993   1.00
C3       0.95708    0.74941    0.78485   1.00
C3       1.04225    0.78448    0.74321   1.00
C3       0.95816    0.75092    0.71460   1.00
C3a      1.04263    0.71511    0.75708   1.00
C2       0.89483    0.74971    0.74852   1.00
C2       1.10517    0.75059    0.75135   1.00
C3       0.91566    0.74922    0.78402   1.00
C3       1.08359    0.78474    0.74394   1.00
C3       0.91680    0.75057    0.71386   1.00
C3       1.08415    0.71602    0.75780   1.00
H1       0.97192    0.74902    0.81273   1.00
H1       1.02685    0.81152    0.73765   1.00
H1       0.89968    0.74863    0.81125   1.00
H1       1.09895    0.81186    0.73875   1.00
H1       0.90179    0.75069    0.68606   1.00
H1       1.10043    0.68947    0.76311   1.00
C5       1.02239    0.67632    0.76324   1.00
H1       0.97401    0.75081    0.68727   1.00
H2       1.04354    0.65344    0.77224   1.00
H2       1.00103    0.67911    0.78747   1.00
N1       1.00292    0.66359    0.72742   1.00
C6       1.02012    0.65697    0.69272   1.00
C6       0.96460    0.65598    0.72327   1.00
C6       0.99243    0.64535    0.66595   1.00
C6       0.95711    0.64474    0.68538   1.00
H3       1.05099    0.66060    0.68702   1.00
H3       0.94309    0.65888    0.74624   1.00
H3       0.99741    0.63810    0.63565   1.00
H3       0.92903    0.63700    0.67327   1.00
C4       0.74993    0.52085    0.75007   1.00
C4       0.75007    0.47915    0.74993   1.00
C3       0.71515    0.54292    0.74941   1.00
C3       0.75679    0.45775    0.78448   1.00
C3       0.78540    0.54184    0.75092   1.00
C3a      0.74292    0.45737    0.71511   1.00
C2       0.75148    0.60517    0.74971   1.00
C2       0.74865    0.39483    0.75059   1.00
C3       0.71598    0.58434    0.74922   1.00
C3       0.75606    0.41641    0.78474   1.00
C3       0.78614    0.58320    0.75057   1.00
C3       0.74220    0.41585    0.71602   1.00
H1       0.68727    0.52808    0.74902   1.00
H1       0.76235    0.47315    0.81152   1.00
H1       0.68875    0.60032    0.74863   1.00
H1       0.76125    0.40105    0.81186   1.00
H1       0.81394    0.59821    0.75069   1.00
H1       0.73689    0.39957    0.68947   1.00
C5       0.73676    0.47761    0.67632   1.00
H1       0.81273    0.52599    0.75081   1.00
H2       0.72776    0.45646    0.65344   1.00
H2       0.71253    0.49897    0.67911   1.00
N1       0.77258    0.49708    0.66359   1.00
C6       0.80728    0.47988    0.65697   1.00
C6       0.77673    0.53540    0.65598   1.00
C6       0.83405    0.50757    0.64535   1.00
C6       0.81462    0.54289    0.64474   1.00
H3       0.81298    0.44901    0.66060   1.00
H3       0.75376    0.55691    0.65888   1.00
H3       0.86435    0.50259    0.63810   1.00
H3       0.82673    0.57097    0.63700   1.00
C4       0.75007    0.74993    0.52085   1.00
C4       0.74993    0.75007    0.47915   1.00
C3       0.74941    0.71515    0.54292   1.00
C3       0.78448    0.75679    0.45775   1.00
C3       0.75092    0.78540    0.54184   1.00
C3a      0.71511    0.74292    0.45737   1.00
C2       0.74971    0.75148    0.60517   1.00
C2       0.75059    0.74865    0.39483   1.00
C3       0.74922    0.71598    0.58434   1.00
C3       0.78474    0.75606    0.41641   1.00
C3       0.75057    0.78614    0.58320   1.00
C3       0.71602    0.74220    0.41585   1.00
H1       0.74902    0.68727    0.52808   1.00
H1       0.81152    0.76235    0.47315   1.00
H1       0.74863    0.68875    0.60032   1.00
H1       0.81186    0.76125    0.40105   1.00
H1       0.75069    0.81394    0.59821   1.00
H1       0.68947    0.73689    0.39957   1.00
C5       0.67632    0.73676    0.47761   1.00
H1       0.75081    0.81273    0.52599   1.00
H2       0.65344    0.72776    0.45646   1.00
H2       0.67911    0.71253    0.49897   1.00
N1       0.66359    0.77258    0.49708   1.00
C6       0.65697    0.80728    0.47988   1.00
C6       0.65598    0.77673    0.53540   1.00
C6       0.64535    0.83405    0.50757   1.00
C6       0.64474    0.81462    0.54289   1.00
H3       0.66060    0.81298    0.44901   1.00
H3       0.65888    0.75376    0.55691   1.00
H3       0.63810    0.86435    0.50259   1.00
H3       0.63700    0.82673    0.57097   1.00
C4       0.25007    0.25007    0.97915   1.00
C4       0.24993    0.24993    1.02085   1.00
C3       0.24941    0.28485    0.95708   1.00
C3       0.28448    0.24321    1.04225   1.00
C3       0.25092    0.21460    0.95816   1.00
C3a      0.21511    0.25708    1.04263   1.00
C2       0.24971    0.24852    0.89483   1.00
C2       0.25059    0.25135    1.10517   1.00
C3       0.24922    0.28402    0.91566   1.00
C3       0.28474    0.24394    1.08359   1.00
C3       0.25057    0.21386    0.91680   1.00
C3       0.21602    0.25780    1.08415   1.00
H1       0.24902    0.31273    0.97192   1.00
H1       0.31152    0.23765    1.02685   1.00
H1       0.24863    0.31125    0.89968   1.00
H1       0.31186    0.23875    1.09895   1.00
H1       0.25069    0.18606    0.90179   1.00
H1       0.18947    0.26311    1.10043   1.00
C5       0.17632    0.26324    1.02239   1.00
H1       0.25081    0.18727    0.97401   1.00
H2       0.15344    0.27224    1.04354   1.00
H2       0.17911    0.28747    1.00103   1.00
N1       0.16359    0.22742    1.00292   1.00
C6       0.15697    0.19272    1.02012   1.00
C6       0.15598    0.22327    0.96460   1.00
C6       0.14535    0.16595    0.99243   1.00
C6       0.14474    0.18538    0.95711   1.00
H3       0.16060    0.18702    1.05099   1.00
H3       0.15888    0.24624    0.94309   1.00
H3       0.13810    0.13565    0.99741   1.00
H3       0.13700    0.17327    0.92903   1.00
C4       0.25007    0.47915    0.75007   1.00
C4       0.24993    0.52085    0.74993   1.00
C3       0.28485    0.45708    0.74941   1.00
C3       0.24321    0.54225    0.78448   1.00
C3       0.21460    0.45816    0.75092   1.00
C3a      0.25708    0.54263    0.71511   1.00
C2       0.24852    0.39483    0.74971   1.00
C2       0.25135    0.60517    0.75059   1.00
C3       0.28402    0.41566    0.74922   1.00
C3       0.24394    0.58359    0.78474   1.00
C3       0.21386    0.41680    0.75057   1.00
C3       0.25780    0.58415    0.71602   1.00
H1       0.31273    0.47192    0.74902   1.00
H1       0.23765    0.52685    0.81152   1.00
H1       0.31125    0.39968    0.74863   1.00
H1       0.23875    0.59895    0.81186   1.00
H1       0.18606    0.40179    0.75069   1.00
H1       0.26311    0.60043    0.68947   1.00
C5       0.26324    0.52239    0.67632   1.00
H1       0.18727    0.47401    0.75081   1.00
H2       0.27224    0.54354    0.65344   1.00
H2       0.28747    0.50103    0.67911   1.00
N1       0.22742    0.50292    0.66359   1.00
C6       0.19272    0.52012    0.65697   1.00
C6       0.22327    0.46460    0.65598   1.00
C6       0.16595    0.49243    0.64535   1.00
C6       0.18538    0.45711    0.64474   1.00
H3       0.18702    0.55099    0.66060   1.00
H3       0.24624    0.44309    0.65888   1.00
H3       0.13565    0.49741    0.63810   1.00
H3       0.17327    0.42903    0.63700   1.00
C4       0.02085    0.25007    0.74993   1.00
C4       -0.02085   0.24993    0.75007   1.00
C3       0.04292    0.24941    0.71515   1.00
C3       -0.04225   0.28448    0.75679   1.00
C3       0.04184    0.25092    0.78540   1.00
C3a      -0.04263   0.21511    0.74292   1.00
C2       0.10517    0.24971    0.75148   1.00
C2       -0.10517   0.25059    0.74865   1.00
C3       0.08434    0.24922    0.71598   1.00
C3       -0.08359   0.28474    0.75606   1.00
C3       0.08320    0.25057    0.78614   1.00
C3       -0.08415   0.21602    0.74220   1.00
H1       0.02808    0.24902    0.68727   1.00
H1       -0.02685   0.31152    0.76235   1.00
H1       0.10032    0.24863    0.68875   1.00
H1       -0.09895   0.31186    0.76125   1.00
H1       0.09821    0.25069    0.81394   1.00
H1       -0.10043   0.18947    0.73689   1.00
C5       -0.02239   0.17632    0.73676   1.00
H1       0.02599    0.25081    0.81273   1.00
H2       -0.04354   0.15344    0.72776   1.00
H2       -0.00103   0.17911    0.71253   1.00
N1       -0.00292   0.16359    0.77258   1.00
C6       -0.02012   0.15697    0.80728   1.00
C6       0.03540    0.15598    0.77673   1.00
C6       0.00757    0.14535    0.83405   1.00
C6       0.04289    0.14474    0.81462   1.00
H3       -0.05099   0.16060    0.81298   1.00
H3       0.05691    0.15888    0.75376   1.00
H3       0.00259    0.13810    0.86435   1.00
H3       0.07097    0.13700    0.82673   1.00
C4       0.47915    0.25007    0.75007   1.00
C4       0.52085    0.24993    0.74993   1.00
C3       0.45708    0.24941    0.78485   1.00
C3       0.54225    0.28448    0.74321   1.00
C3       0.45816    0.25092    0.71460   1.00
C3a      0.54263    0.21511    0.75708   1.00
C2       0.39483    0.24971    0.74852   1.00
C2       0.60517    0.25059    0.75135   1.00
C3       0.41566    0.24922    0.78402   1.00
C3       0.58359    0.28474    0.74394   1.00
C3       0.41680    0.25057    0.71386   1.00
C3       0.58415    0.21602    0.75780   1.00
H1       0.47192    0.24902    0.81273   1.00
H1       0.52685    0.31152    0.73765   1.00
H1       0.39968    0.24863    0.81125   1.00
H1       0.59895    0.31186    0.73875   1.00
H1       0.40179    0.25069    0.68606   1.00
H1       0.60043    0.18947    0.76311   1.00
C5       0.52239    0.17632    0.76324   1.00
H1       0.47401    0.25081    0.68727   1.00
H2       0.54354    0.15344    0.77224   1.00
H2       0.50103    0.17911    0.78747   1.00
N1       0.50292    0.16359    0.72742   1.00
C6       0.52012    0.15697    0.69272   1.00
C6       0.46460    0.15598    0.72327   1.00
C6       0.49243    0.14535    0.66595   1.00
C6       0.45711    0.14474    0.68538   1.00
H3       0.55099    0.16060    0.68702   1.00
H3       0.44309    0.15888    0.74624   1.00
H3       0.49741    0.13810    0.63565   1.00
H3       0.42903    0.13700    0.67327   1.00
C4       0.24993    0.02085    0.75007   1.00
C4       0.25007    -0.02085   0.74993   1.00
C3       0.21515    0.04292    0.74941   1.00
C3       0.25679    -0.04225   0.78448   1.00
C3       0.28540    0.04184    0.75092   1.00
C3a      0.24292    -0.04263   0.71511   1.00
C2       0.25148    0.10517    0.74971   1.00
C2       0.24865    -0.10517   0.75059   1.00
C3       0.21598    0.08434    0.74922   1.00
C3       0.25606    -0.08359   0.78474   1.00
C3       0.28614    0.08320    0.75057   1.00
C3       0.24220    -0.08415   0.71602   1.00
H1       0.18727    0.02808    0.74902   1.00
H1       0.26235    -0.02685   0.81152   1.00
H1       0.18875    0.10032    0.74863   1.00
H1       0.26125    -0.09895   0.81186   1.00
H1       0.31394    0.09821    0.75069   1.00
H1       0.23689    -0.10043   0.68947   1.00
C5       0.23676    -0.02239   0.67632   1.00
H1       0.31273    0.02599    0.75081   1.00
H2       0.22776    -0.04354   0.65344   1.00
H2       0.21253    -0.00103   0.67911   1.00
N1       0.27258    -0.00292   0.66359   1.00
C6       0.30728    -0.02012   0.65697   1.00
C6       0.27673    0.03540    0.65598   1.00
C6       0.33405    0.00757    0.64535   1.00
C6       0.31462    0.04289    0.64474   1.00
H3       0.31298    -0.05099   0.66060   1.00
H3       0.25376    0.05691    0.65888   1.00
H3       0.36435    0.00259    0.63810   1.00
H3       0.32673    0.07097    0.63700   1.00
C4       0.25007    0.24993    0.52085   1.00
C4       0.24993    0.25007    0.47915   1.00
C3       0.24941    0.21515    0.54292   1.00
C3       0.28448    0.25679    0.45775   1.00
C3       0.25092    0.28540    0.54184   1.00
C3a      0.21511    0.24292    0.45737   1.00
C2       0.24971    0.25148    0.60517   1.00
C2       0.25059    0.24865    0.39483   1.00
C3       0.24922    0.21598    0.58434   1.00
C3       0.28474    0.25606    0.41641   1.00
C3       0.25057    0.28614    0.58320   1.00
C3       0.21602    0.24220    0.41585   1.00
H1       0.24902    0.18727    0.52808   1.00
H1       0.31152    0.26235    0.47315   1.00
H1       0.24863    0.18875    0.60032   1.00
H1       0.31186    0.26125    0.40105   1.00
H1       0.25069    0.31394    0.59821   1.00
H1       0.18947    0.23689    0.39957   1.00
C5       0.17632    0.23676    0.47761   1.00
H1       0.25081    0.31273    0.52599   1.00
H2       0.15344    0.22776    0.45646   1.00
H2       0.17911    0.21253    0.49897   1.00
N1       0.16359    0.27258    0.49708   1.00
C6       0.15697    0.30728    0.47988   1.00
C6       0.15598    0.27673    0.53540   1.00
C6       0.14535    0.33405    0.50757   1.00
C6       0.14474    0.31462    0.54289   1.00
H3       0.16060    0.31298    0.44901   1.00
H3       0.15888    0.25376    0.55691   1.00
H3       0.13810    0.36435    0.50259   1.00
H3       0.13700    0.32673    0.57097   1.00
C4       0.25007    0.75007    0.47915   1.00
C4       0.24993    0.74993    0.52085   1.00
C3       0.24941    0.78485    0.45708   1.00
C3       0.28448    0.74321    0.54225   1.00
C3       0.25092    0.71460    0.45816   1.00
C3a      0.21511    0.75708    0.54263   1.00
C2       0.24971    0.74852    0.39483   1.00
C2       0.25059    0.75135    0.60517   1.00
C3       0.24922    0.78402    0.41566   1.00
C3       0.28474    0.74394    0.58359   1.00
C3       0.25057    0.71386    0.41680   1.00
C3       0.21602    0.75780    0.58415   1.00
H1       0.24902    0.81273    0.47192   1.00
H1       0.31152    0.73765    0.52685   1.00
H1       0.24863    0.81125    0.39968   1.00
H1       0.31186    0.73875    0.59895   1.00
H1       0.25069    0.68606    0.40179   1.00
H1       0.18947    0.76311    0.60043   1.00
C5       0.17632    0.76324    0.52239   1.00
H1       0.25081    0.68727    0.47401   1.00
H2       0.15344    0.77224    0.54354   1.00
H2       0.17911    0.78747    0.50103   1.00
N1       0.16359    0.72742    0.50292   1.00
C6       0.15697    0.69272    0.52012   1.00
C6       0.15598    0.72327    0.46460   1.00
C6       0.14535    0.66595    0.49243   1.00
C6       0.14474    0.68538    0.45711   1.00
H3       0.16060    0.68702    0.55099   1.00
H3       0.15888    0.74624    0.44309   1.00
H3       0.13810    0.63565    0.49741   1.00
H3       0.13700    0.67327    0.42903   1.00
C4       0.25007    0.97915    0.25007   1.00
C4       0.24993    1.02085    0.24993   1.00
C3       0.28485    0.95708    0.24941   1.00
C3       0.24321    1.04225    0.28448   1.00
C3       0.21460    0.95816    0.25092   1.00
C3a      0.25708    1.04263    0.21511   1.00
C2       0.24852    0.89483    0.24971   1.00
C2       0.25135    1.10517    0.25059   1.00
C3       0.28402    0.91566    0.24922   1.00
C3       0.24394    1.08359    0.28474   1.00
C3       0.21386    0.91680    0.25057   1.00
C3       0.25780    1.08415    0.21602   1.00
H1       0.31273    0.97192    0.24902   1.00
H1       0.23765    1.02685    0.31152   1.00
H1       0.31125    0.89968    0.24863   1.00
H1       0.23875    1.09895    0.31186   1.00
H1       0.18606    0.90179    0.25069   1.00
H1       0.26311    1.10043    0.18947   1.00
C5       0.26324    1.02239    0.17632   1.00
H1       0.18727    0.97401    0.25081   1.00
H2       0.27224    1.04354    0.15344   1.00
H2       0.28747    1.00103    0.17911   1.00
N1       0.22742    1.00292    0.16359   1.00
C6       0.19272    1.02012    0.15697   1.00
C6       0.22327    0.96460    0.15598   1.00
C6       0.16595    0.99243    0.14535   1.00
C6       0.18538    0.95711    0.14474   1.00
H3       0.18702    1.05099    0.16060   1.00
H3       0.24624    0.94309    0.15888   1.00
H3       0.13565    0.99741    0.13810   1.00
H3       0.17327    0.92903    0.13700   1.00
C4       0.02085    0.75007    0.24993   1.00
C4       -0.02085   0.74993    0.25007   1.00
C3       0.04292    0.74941    0.21515   1.00
C3       -0.04225   0.78448    0.25679   1.00
C3       0.04184    0.75092    0.28540   1.00
C3a      -0.04263   0.71511    0.24292   1.00
C2       0.10517    0.74971    0.25148   1.00
C2       -0.10517   0.75059    0.24865   1.00
C3       0.08434    0.74922    0.21598   1.00
C3       -0.08359   0.78474    0.25606   1.00
C3       0.08320    0.75057    0.28614   1.00
C3       -0.08415   0.71602    0.24220   1.00
H1       0.02808    0.74902    0.18727   1.00
H1       -0.02685   0.81152    0.26235   1.00
H1       0.10032    0.74863    0.18875   1.00
H1       -0.09895   0.81186    0.26125   1.00
H1       0.09821    0.75069    0.31394   1.00
H1       -0.10043   0.68947    0.23689   1.00
C5       -0.02239   0.67632    0.23676   1.00
H1       0.02599    0.75081    0.31273   1.00
H2       -0.04354   0.65344    0.22776   1.00
H2       -0.00103   0.67911    0.21253   1.00
N1       -0.00292   0.66359    0.27258   1.00
C6       -0.02012   0.65697    0.30728   1.00
C6       0.03540    0.65598    0.27673   1.00
C6       0.00757    0.64535    0.33405   1.00
C6       0.04289    0.64474    0.31462   1.00
H3       -0.05099   0.66060    0.31298   1.00
H3       0.05691    0.65888    0.25376   1.00
H3       0.00259    0.63810    0.36435   1.00
H3       0.07097    0.63700    0.32673   1.00
C4       0.47915    0.75007    0.25007   1.00
C4       0.52085    0.74993    0.24993   1.00
C3       0.45708    0.74941    0.28485   1.00
C3       0.54225    0.78448    0.24321   1.00
C3       0.45816    0.75092    0.21460   1.00
C3a      0.54263    0.71511    0.25708   1.00
C2       0.39483    0.74971    0.24852   1.00
C2       0.60517    0.75059    0.25135   1.00
C3       0.41566    0.74922    0.28402   1.00
C3       0.58359    0.78474    0.24394   1.00
C3       0.41680    0.75057    0.21386   1.00
C3       0.58415    0.71602    0.25780   1.00
H1       0.47192    0.74902    0.31273   1.00
H1       0.52685    0.81152    0.23765   1.00
H1       0.39968    0.74863    0.31125   1.00
H1       0.59895    0.81186    0.23875   1.00
H1       0.40179    0.75069    0.18606   1.00
H1       0.60043    0.68947    0.26311   1.00
C5       0.52239    0.67632    0.26324   1.00
H1       0.47401    0.75081    0.18727   1.00
H2       0.54354    0.65344    0.27224   1.00
H2       0.50103    0.67911    0.28747   1.00
N1       0.50292    0.66359    0.22742   1.00
C6       0.52012    0.65697    0.19272   1.00
C6       0.46460    0.65598    0.22327   1.00
C6       0.49243    0.64535    0.16595   1.00
C6       0.45711    0.64474    0.18538   1.00
H3       0.55099    0.66060    0.18702   1.00
H3       0.44309    0.65888    0.24624   1.00
H3       0.49741    0.63810    0.13565   1.00
H3       0.42903    0.63700    0.17327   1.00
C4       0.24993    0.52085    0.25007   1.00
C4       0.25007    0.47915    0.24993   1.00
C3       0.21515    0.54292    0.24941   1.00
C3       0.25679    0.45775    0.28448   1.00
C3       0.28540    0.54184    0.25092   1.00
C3a      0.24292    0.45737    0.21511   1.00
C2       0.25148    0.60517    0.24971   1.00
C2       0.24865    0.39483    0.25059   1.00
C3       0.21598    0.58434    0.24922   1.00
C3       0.25606    0.41641    0.28474   1.00
C3       0.28614    0.58320    0.25057   1.00
C3       0.24220    0.41585    0.21602   1.00
H1       0.18727    0.52808    0.24902   1.00
H1       0.26235    0.47315    0.31152   1.00
H1       0.18875    0.60032    0.24863   1.00
H1       0.26125    0.40105    0.31186   1.00
H1       0.31394    0.59821    0.25069   1.00
H1       0.23689    0.39957    0.18947   1.00
C5       0.23676    0.47761    0.17632   1.00
H1       0.31273    0.52599    0.25081   1.00
H2       0.22776    0.45646    0.15344   1.00
H2       0.21253    0.49897    0.17911   1.00
N1       0.27258    0.49708    0.16359   1.00
C6       0.30728    0.47988    0.15697   1.00
C6       0.27673    0.53540    0.15598   1.00
C6       0.33405    0.50757    0.14535   1.00
C6       0.31462    0.54289    0.14474   1.00
H3       0.31298    0.44901    0.16060   1.00
H3       0.25376    0.55691    0.15888   1.00
H3       0.36435    0.50259    0.13810   1.00
H3       0.32673    0.57097    0.13700   1.00
C4       0.25007    0.74993    0.02085   1.00
C4       0.24993    0.75007    -0.02085   1.00
C3       0.24941    0.71515    0.04292   1.00
C3       0.28448    0.75679    -0.04225   1.00
C3       0.25092    0.78540    0.04184   1.00
C3a      0.21511    0.74292    -0.04263   1.00
C2       0.24971    0.75148    0.10517   1.00
C2       0.25059    0.74865    -0.10517   1.00
C3       0.24922    0.71598    0.08434   1.00
C3       0.28474    0.75606    -0.08359   1.00
C3       0.25057    0.78614    0.08320   1.00
C3       0.21602    0.74220    -0.08415   1.00
H1       0.24902    0.68727    0.02808   1.00
H1       0.31152    0.76235    -0.02685   1.00
H1       0.24863    0.68875    0.10032   1.00
H1       0.31186    0.76125    -0.09895   1.00
H1       0.25069    0.81394    0.09821   1.00
H1       0.18947    0.73689    -0.10043   1.00
C5       0.17632    0.73676    -0.02239   1.00
H1       0.25081    0.81273    0.02599   1.00
H2       0.15344    0.72776    -0.04354   1.00
H2       0.17911    0.71253    -0.00103   1.00
N1       0.16359    0.77258    -0.00292   1.00
C6       0.15697    0.80728    -0.02012   1.00
C6       0.15598    0.77673    0.03540   1.00
C6       0.14535    0.83405    0.00757   1.00
C6       0.14474    0.81462    0.04289   1.00
H3       0.16060    0.81298    -0.05099   1.00
H3       0.15888    0.75376    0.05691   1.00
H3       0.13810    0.86435    0.00259   1.00
H3       0.13700    0.82673    0.07097   1.00
C4       0.75007    0.25007    0.47915   1.00
C4       0.74993    0.24993    0.52085   1.00
C3       0.74941    0.28485    0.45708   1.00
C3       0.78448    0.24321    0.54225   1.00
C3       0.75092    0.21460    0.45816   1.00
C3a      0.71511    0.25708    0.54263   1.00
C2       0.74971    0.24852    0.39483   1.00
C2       0.75059    0.25135    0.60517   1.00
C3       0.74922    0.28402    0.41566   1.00
C3       0.78474    0.24394    0.58359   1.00
C3       0.75057    0.21386    0.41680   1.00
C3       0.71602    0.25780    0.58415   1.00
H1       0.74902    0.31273    0.47192   1.00
H1       0.81152    0.23765    0.52685   1.00
H1       0.74863    0.31125    0.39968   1.00
H1       0.81186    0.23875    0.59895   1.00
H1       0.75069    0.18606    0.40179   1.00
H1       0.68947    0.26311    0.60043   1.00
C5       0.67632    0.26324    0.52239   1.00
H1       0.75081    0.18727    0.47401   1.00
H2       0.65344    0.27224    0.54354   1.00
H2       0.67911    0.28747    0.50103   1.00
N1       0.66359    0.22742    0.50292   1.00
C6       0.65697    0.19272    0.52012   1.00
C6       0.65598    0.22327    0.46460   1.00
C6       0.64535    0.16595    0.49243   1.00
C6       0.64474    0.18538    0.45711   1.00
H3       0.66060    0.18702    0.55099   1.00
H3       0.65888    0.24624    0.44309   1.00
H3       0.63810    0.13565    0.49741   1.00
H3       0.63700    0.17327    0.42903   1.00
C4       0.75007    0.47915    0.25007   1.00
C4       0.74993    0.52085    0.24993   1.00
C3       0.78485    0.45708    0.24941   1.00
C3       0.74321    0.54225    0.28448   1.00
C3       0.71460    0.45816    0.25092   1.00
C3a      0.75708    0.54263    0.21511   1.00
C2       0.74852    0.39483    0.24971   1.00
C2       0.75135    0.60517    0.25059   1.00
C3       0.78402    0.41566    0.24922   1.00
C3       0.74394    0.58359    0.28474   1.00
C3       0.71386    0.41680    0.25057   1.00
C3       0.75780    0.58415    0.21602   1.00
H1       0.81273    0.47192    0.24902   1.00
H1       0.73765    0.52685    0.31152   1.00
H1       0.81125    0.39968    0.24863   1.00
H1       0.73875    0.59895    0.31186   1.00
H1       0.68606    0.40179    0.25069   1.00
H1       0.76311    0.60043    0.18947   1.00
C5       0.76324    0.52239    0.17632   1.00
H1       0.68727    0.47401    0.25081   1.00
H2       0.77224    0.54354    0.15344   1.00
H2       0.78747    0.50103    0.17911   1.00
N1       0.72742    0.50292    0.16359   1.00
C6       0.69272    0.52012    0.15697   1.00
C6       0.72327    0.46460    0.15598   1.00
C6       0.66595    0.49243    0.14535   1.00
C6       0.68538    0.45711    0.14474   1.00
H3       0.68702    0.55099    0.16060   1.00
H3       0.74624    0.44309    0.15888   1.00
H3       0.63565    0.49741    0.13810   1.00
H3       0.67327    0.42903    0.13700   1.00
C4       0.52085    0.25007    0.24993   1.00
C4       0.47915    0.24993    0.25007   1.00
C3       0.54292    0.24941    0.21515   1.00
C3       0.45775    0.28448    0.25679   1.00
C3       0.54184    0.25092    0.28540   1.00
C3a      0.45737    0.21511    0.24292   1.00
C2       0.60517    0.24971    0.25148   1.00
C2       0.39483    0.25059    0.24865   1.00
C3       0.58434    0.24922    0.21598   1.00
C3       0.41641    0.28474    0.25606   1.00
C3       0.58320    0.25057    0.28614   1.00
C3       0.41585    0.21602    0.24220   1.00
H1       0.52808    0.24902    0.18727   1.00
H1       0.47315    0.31152    0.26235   1.00
H1       0.60032    0.24863    0.18875   1.00
H1       0.40105    0.31186    0.26125   1.00
H1       0.59821    0.25069    0.31394   1.00
H1       0.39957    0.18947    0.23689   1.00
C5       0.47761    0.17632    0.23676   1.00
H1       0.52599    0.25081    0.31273   1.00
H2       0.45646    0.15344    0.22776   1.00
H2       0.49897    0.17911    0.21253   1.00
N1       0.49708    0.16359    0.27258   1.00
C6       0.47988    0.15697    0.30728   1.00
C6       0.53540    0.15598    0.27673   1.00
C6       0.50757    0.14535    0.33405   1.00
C6       0.54289    0.14474    0.31462   1.00
H3       0.44901    0.16060    0.31298   1.00
H3       0.55691    0.15888    0.25376   1.00
H3       0.50259    0.13810    0.36435   1.00
H3       0.57097    0.13700    0.32673   1.00
C4       0.97915    0.25007    0.25007   1.00
C4       1.02085    0.24993    0.24993   1.00
C3       0.95708    0.24941    0.28485   1.00
C3       1.04225    0.28448    0.24321   1.00
C3       0.95816    0.25092    0.21460   1.00
C3a      1.04263    0.21511    0.25708   1.00
C2       0.89483    0.24971    0.24852   1.00
C2       1.10517    0.25059    0.25135   1.00
C3       0.91566    0.24922    0.28402   1.00
C3       1.08359    0.28474    0.24394   1.00
C3       0.91680    0.25057    0.21386   1.00
C3       1.08415    0.21602    0.25780   1.00
H1       0.97192    0.24902    0.31273   1.00
H1       1.02685    0.31152    0.23765   1.00
H1       0.89968    0.24863    0.31125   1.00
H1       1.09895    0.31186    0.23875   1.00
H1       0.90179    0.25069    0.18606   1.00
H1       1.10043    0.18947    0.26311   1.00
C5       1.02239    0.17632    0.26324   1.00
H1       0.97401    0.25081    0.18727   1.00
H2       1.04354    0.15344    0.27224   1.00
H2       1.00103    0.17911    0.28747   1.00
N1       1.00292    0.16359    0.22742   1.00
C6       1.02012    0.15697    0.19272   1.00
C6       0.96460    0.15598    0.22327   1.00
C6       0.99243    0.14535    0.16595   1.00
C6       0.95711    0.14474    0.18538   1.00
H3       1.05099    0.16060    0.18702   1.00
H3       0.94309    0.15888    0.24624   1.00
H3       0.99741    0.13810    0.13565   1.00
H3       0.92903    0.13700    0.17327   1.00
C4       0.74993    0.02085    0.25007   1.00
C4       0.75007    -0.02085   0.24993   1.00
C3       0.71515    0.04292    0.24941   1.00
C3       0.75679    -0.04225   0.28448   1.00
C3       0.78540    0.04184    0.25092   1.00
C3a      0.74292    -0.04263   0.21511   1.00
C2       0.75148    0.10517    0.24971   1.00
C2       0.74865    -0.10517   0.25059   1.00
C3       0.71598    0.08434    0.24922   1.00
C3       0.75606    -0.08359   0.28474   1.00
C3       0.78614    0.08320    0.25057   1.00
C3       0.74220    -0.08415   0.21602   1.00
H1       0.68727    0.02808    0.24902   1.00
H1       0.76235    -0.02685   0.31152   1.00
H1       0.68875    0.10032    0.24863   1.00
H1       0.76125    -0.09895   0.31186   1.00
H1       0.81394    0.09821    0.25069   1.00
H1       0.73689    -0.10043   0.18947   1.00
C5       0.73676    -0.02239   0.17632   1.00
H1       0.81273    0.02599    0.25081   1.00
H2       0.72776    -0.04354   0.15344   1.00
H2       0.71253    -0.00103   0.17911   1.00
N1       0.77258    -0.00292   0.16359   1.00
C6       0.80728    -0.02012   0.15697   1.00
C6       0.77673    0.03540    0.15598   1.00
C6       0.83405    0.00757    0.14535   1.00
C6       0.81462    0.04289    0.14474   1.00
H3       0.81298    -0.05099   0.16060   1.00
H3       0.75376    0.05691    0.15888   1.00
H3       0.86435    0.00259    0.13810   1.00
H3       0.82673    0.07097    0.13700   1.00
C4       0.75007    0.24993    0.02085   1.00
C4       0.74993    0.25007    -0.02085   1.00
C3       0.74941    0.21515    0.04292   1.00
C3       0.78448    0.25679    -0.04225   1.00
C3       0.75092    0.28540    0.04184   1.00
C3a      0.71511    0.24292    -0.04263   1.00
C2       0.74971    0.25148    0.10517   1.00
C2       0.75059    0.24865    -0.10517   1.00
C3       0.74922    0.21598    0.08434   1.00
C3       0.78474    0.25606    -0.08359   1.00
C3       0.75057    0.28614    0.08320   1.00
C3       0.71602    0.24220    -0.08415   1.00
H1       0.74902    0.18727    0.02808   1.00
H1       0.81152    0.26235    -0.02685   1.00
H1       0.74863    0.18875    0.10032   1.00
H1       0.81186    0.26125    -0.09895   1.00
H1       0.75069    0.31394    0.09821   1.00
H1       0.68947    0.23689    -0.10043   1.00
C5       0.67632    0.23676    -0.02239   1.00
H1       0.75081    0.31273    0.02599   1.00
H2       0.65344    0.22776    -0.04354   1.00
H2       0.67911    0.21253    -0.00103   1.00
N1       0.66359    0.27258    -0.00292   1.00
C6       0.65697    0.30728    -0.02012   1.00
C6       0.65598    0.27673    0.03540   1.00
C6       0.64535    0.33405    0.00757   1.00
C6       0.64474    0.31462    0.04289   1.00
H3       0.66060    0.31298    -0.05099   1.00
H3       0.65888    0.25376    0.05691   1.00
H3       0.63810    0.36435    0.00259   1.00
H3       0.63700    0.32673    0.07097   1.00
C4       1.00007    1.00007    1.22915   1.00
C4       0.99993    0.99993    1.27085   1.00
C3       0.99941    1.03485    1.20708   1.00
C3       1.03448    0.99321    1.29225   1.00
C3       1.00092    0.96460    1.20816   1.00
C3a      0.96511    1.00708    1.29263   1.00
C2       0.99971    0.99852    1.14483   1.00
C2       1.00059    1.00135    1.35517   1.00
C3       0.99922    1.03402    1.16566   1.00
C3       1.03474    0.99394    1.33359   1.00
C3       1.00057    0.96386    1.16680   1.00
C3       0.96602    1.00780    1.33415   1.00
H1       0.99902    1.06273    1.22192   1.00
H1       1.06152    0.98765    1.27685   1.00
H1       0.99863    1.06125    1.14968   1.00
H1       1.06186    0.98875    1.34895   1.00
H1       1.00069    0.93606    1.15179   1.00
H1       0.93947    1.01311    1.35043   1.00
C5       0.92632    1.01324    1.27239   1.00
H1       1.00081    0.93727    1.22401   1.00
H2       0.90344    1.02224    1.29354   1.00
H2       0.92911    1.03747    1.25103   1.00
N1       0.91359    0.97742    1.25292   1.00
C6       0.90697    0.94272    1.27012   1.00
C6       0.90598    0.97327    1.21460   1.00
C6       0.89535    0.91595    1.24243   1.00
C6       0.89474    0.93538    1.20711   1.00
H3       0.91060    0.93702    1.30099   1.00
H3       0.90888    0.99624    1.19309   1.00
H3       0.88810    0.88565    1.24741   1.00
H3       0.88700    0.92327    1.17903   1.00
C4       1.00007    1.22915    1.00007   1.00
C4       0.99993    1.27085    0.99993   1.00
C3       1.03485    1.20708    0.99941   1.00
C3       0.99321    1.29225    1.03448   1.00
C3       0.96460    1.20816    1.00092   1.00
C3a      1.00708    1.29263    0.96511   1.00
C2       0.99852    1.14483    0.99971   1.00
C2       1.00135    1.35517    1.00059   1.00
C3       1.03402    1.16566    0.99922   1.00
C3       0.99394    1.33359    1.03474   1.00
C3       0.96386    1.16680    1.00057   1.00
C3       1.00780    1.33415    0.96602   1.00
H1       1.06273    1.22192    0.99902   1.00
H1       0.98765    1.27685    1.06152   1.00
H1       1.06125    1.14968    0.99863   1.00
H1       0.98875    1.34895    1.06186   1.00
H1       0.93606    1.15179    1.00069   1.00
H1       1.01311    1.35043    0.93947   1.00
C5       1.01324    1.27239    0.92632   1.00
H1       0.93727    1.22401    1.00081   1.00
H2       1.02224    1.29354    0.90344   1.00
H2       1.03747    1.25103    0.92911   1.00
N1       0.97742    1.25292    0.91359   1.00
C6       0.94272    1.27012    0.90697   1.00
C6       0.97327    1.21460    0.90598   1.00
C6       0.91595    1.24243    0.89535   1.00
C6       0.93538    1.20711    0.89474   1.00
H3       0.93702    1.30099    0.91060   1.00
H3       0.99624    1.19309    0.90888   1.00
H3       0.88565    1.24741    0.88810   1.00
H3       0.92327    1.17903    0.88700   1.00
C4       0.77085    1.00007    0.99993   1.00
C4       0.72915    0.99993    1.00007   1.00
C3       0.79292    0.99941    0.96515   1.00
C3       0.70775    1.03448    1.00679   1.00
C3       0.79184    1.00092    1.03540   1.00
C3a      0.70737    0.96511    0.99292   1.00
C2       0.85517    0.99971    1.00148   1.00
C2       0.64483    1.00059    0.99865   1.00
C3       0.83434    0.99922    0.96598   1.00
C3       0.66641    1.03474    1.00606   1.00
C3       0.83320    1.00057    1.03614   1.00
C3       0.66585    0.96602    0.99220   1.00
H1       0.77808    0.99902    0.93727   1.00
H1       0.72315    1.06152    1.01235   1.00
H1       0.85032    0.99863    0.93875   1.00
H1       0.65105    1.06186    1.01125   1.00
H1       0.84821    1.00069    1.06394   1.00
H1       0.64957    0.93947    0.98689   1.00
C5       0.72761    0.92632    0.98676   1.00
H1       0.77599    1.00081    1.06273   1.00
H2       0.70646    0.90344    0.97776   1.00
H2       0.74897    0.92911    0.96253   1.00
N1       0.74708    0.91359    1.02258   1.00
C6       0.72988    0.90697    1.05728   1.00
C6       0.78540    0.90598    1.02673   1.00
C6       0.75757    0.89535    1.08405   1.00
C6       0.79289    0.89474    1.06462   1.00
H3       0.69901    0.91060    1.06298   1.00
H3       0.80691    0.90888    1.00376   1.00
H3       0.75259    0.88810    1.11435   1.00
H3       0.82097    0.88700    1.07673   1.00
C4       1.22915    1.00007    1.00007   1.00
C4       1.27085    0.99993    0.99993   1.00
C3       1.20708    0.99941    1.03485   1.00
C3       1.29225    1.03448    0.99321   1.00
C3       1.20816    1.00092    0.96460   1.00
C3a      1.29263    0.96511    1.00708   1.00
C2       1.14483    0.99971    0.99852   1.00
C2       1.35517    1.00059    1.00135   1.00
C3       1.16566    0.99922    1.03402   1.00
C3       1.33359    1.03474    0.99394   1.00
C3       1.16680    1.00057    0.96386   1.00
C3       1.33415    0.96602    1.00780   1.00
H1       1.22192    0.99902    1.06273   1.00
H1       1.27685    1.06152    0.98765   1.00
H1       1.14968    0.99863    1.06125   1.00
H1       1.34895    1.06186    0.98875   1.00
H1       1.15179    1.00069    0.93606   1.00
H1       1.35043    0.93947    1.01311   1.00
C5       1.27239    0.92632    1.01324   1.00
H1       1.22401    1.00081    0.93727   1.00
H2       1.29354    0.90344    1.02224   1.00
H2       1.25103    0.92911    1.03747   1.00
N1       1.25292    0.91359    0.97742   1.00
C6       1.27012    0.90697    0.94272   1.00
C6       1.21460    0.90598    0.97327   1.00
C6       1.24243    0.89535    0.91595   1.00
C6       1.20711    0.89474    0.93538   1.00
H3       1.30099    0.91060    0.93702   1.00
H3       1.19309    0.90888    0.99624   1.00
H3       1.24741    0.88810    0.88565   1.00
H3       1.17903    0.88700    0.92327   1.00
C4       0.99993    0.77085    1.00007   1.00
C4       1.00007    0.72915    0.99993   1.00
C3       0.96515    0.79292    0.99941   1.00
C3       1.00679    0.70775    1.03448   1.00
C3       1.03540    0.79184    1.00092   1.00
C3a      0.99292    0.70737    0.96511   1.00
C2       1.00148    0.85517    0.99971   1.00
C2       0.99865    0.64483    1.00059   1.00
C3       0.96598    0.83434    0.99922   1.00
C3       1.00606    0.66641    1.03474   1.00
C3       1.03614    0.83320    1.00057   1.00
C3       0.99220    0.66585    0.96602   1.00
H1       0.93727    0.77808    0.99902   1.00
H1       1.01235    0.72315    1.06152   1.00
H1       0.93875    0.85032    0.99863   1.00
H1       1.01125    0.65105    1.06186   1.00
H1       1.06394    0.84821    1.00069   1.00
H1       0.98689    0.64957    0.93947   1.00
C5       0.98676    0.72761    0.92632   1.00
H1       1.06273    0.77599    1.00081   1.00
H2       0.97776    0.70646    0.90344   1.00
H2       0.96253    0.74897    0.92911   1.00
N1       1.02258    0.74708    0.91359   1.00
C6       1.05728    0.72988    0.90697   1.00
C6       1.02673    0.78540    0.90598   1.00
C6       1.08405    0.75757    0.89535   1.00
C6       1.06462    0.79289    0.89474   1.00
H3       1.06298    0.69901    0.91060   1.00
H3       1.00376    0.80691    0.90888   1.00
H3       1.11435    0.75259    0.88810   1.00
H3       1.07673    0.82097    0.88700   1.00
C4       1.00007    0.99993    0.77085   1.00
C4       0.99993    1.00007    0.72915   1.00
C3       0.99941    0.96515    0.79292   1.00
C3       1.03448    1.00679    0.70775   1.00
C3       1.00092    1.03540    0.79184   1.00
C3a      0.96511    0.99292    0.70737   1.00
C2       0.99971    1.00148    0.85517   1.00
C2       1.00059    0.99865    0.64483   1.00
C3       0.99922    0.96598    0.83434   1.00
C3       1.03474    1.00606    0.66641   1.00
C3       1.00057    1.03614    0.83320   1.00
C3       0.96602    0.99220    0.66585   1.00
H1       0.99902    0.93727    0.77808   1.00
H1       1.06152    1.01235    0.72315   1.00
H1       0.99863    0.93875    0.85032   1.00
H1       1.06186    1.01125    0.65105   1.00
H1       1.00069    1.06394    0.84821   1.00
H1       0.93947    0.98689    0.64957   1.00
C5       0.92632    0.98676    0.72761   1.00
H1       1.00081    1.06273    0.77599   1.00
H2       0.90344    0.97776    0.70646   1.00
H2       0.92911    0.96253    0.74897   1.00
N1       0.91359    1.02258    0.74708   1.00
C6       0.90697    1.05728    0.72988   1.00
C6       0.90598    1.02673    0.78540   1.00
C6       0.89535    1.08405    0.75757   1.00
C6       0.89474    1.06462    0.79289   1.00
H3       0.91060    1.06298    0.69901   1.00
H3       0.90888    1.00376    0.80691   1.00
H3       0.88810    1.11435    0.75259   1.00
H3       0.88700    1.07673    0.82097   1.00
C4       0.50007    0.50007    1.22915   1.00
C4       0.49993    0.49993    1.27085   1.00
C3       0.49941    0.53485    1.20708   1.00
C3       0.53448    0.49321    1.29225   1.00
C3       0.50092    0.46460    1.20816   1.00
C3a      0.46511    0.50708    1.29263   1.00
C2       0.49971    0.49852    1.14483   1.00
C2       0.50059    0.50135    1.35517   1.00
C3       0.49922    0.53402    1.16566   1.00
C3       0.53474    0.49394    1.33359   1.00
C3       0.50057    0.46386    1.16680   1.00
C3       0.46602    0.50780    1.33415   1.00
H1       0.49902    0.56273    1.22192   1.00
H1       0.56152    0.48765    1.27685   1.00
H1       0.49863    0.56125    1.14968   1.00
H1       0.56186    0.48875    1.34895   1.00
H1       0.50069    0.43606    1.15179   1.00
H1       0.43947    0.51311    1.35043   1.00
C5       0.42632    0.51324    1.27239   1.00
H1       0.50081    0.43727    1.22401   1.00
H2       0.40344    0.52224    1.29354   1.00
H2       0.42911    0.53747    1.25103   1.00
N1       0.41359    0.47742    1.25292   1.00
C6       0.40697    0.44272    1.27012   1.00
C6       0.40598    0.47327    1.21460   1.00
C6       0.39535    0.41595    1.24243   1.00
C6       0.39474    0.43538    1.20711   1.00
H3       0.41060    0.43702    1.30099   1.00
H3       0.40888    0.49624    1.19309   1.00
H3       0.38810    0.38565    1.24741   1.00
H3       0.38700    0.42327    1.17903   1.00
C4       0.50007    0.72915    1.00007   1.00
C4       0.49993    0.77085    0.99993   1.00
C3       0.53485    0.70708    0.99941   1.00
C3       0.49321    0.79225    1.03448   1.00
C3       0.46460    0.70816    1.00092   1.00
C3a      0.50708    0.79263    0.96511   1.00
C2       0.49852    0.64483    0.99971   1.00
C2       0.50135    0.85517    1.00059   1.00
C3       0.53402    0.66566    0.99922   1.00
C3       0.49394    0.83359    1.03474   1.00
C3       0.46386    0.66680    1.00057   1.00
C3       0.50780    0.83415    0.96602   1.00
H1       0.56273    0.72192    0.99902   1.00
H1       0.48765    0.77685    1.06152   1.00
H1       0.56125    0.64968    0.99863   1.00
H1       0.48875    0.84895    1.06186   1.00
H1       0.43606    0.65179    1.00069   1.00
H1       0.51311    0.85043    0.93947   1.00
C5       0.51324    0.77239    0.92632   1.00
H1       0.43727    0.72401    1.00081   1.00
H2       0.52224    0.79354    0.90344   1.00
H2       0.53747    0.75103    0.92911   1.00
N1       0.47742    0.75292    0.91359   1.00
C6       0.44272    0.77012    0.90697   1.00
C6       0.47327    0.71460    0.90598   1.00
C6       0.41595    0.74243    0.89535   1.00
C6       0.43538    0.70711    0.89474   1.00
H3       0.43702    0.80099    0.91060   1.00
H3       0.49624    0.69309    0.90888   1.00
H3       0.38565    0.74741    0.88810   1.00
H3       0.42327    0.67903    0.88700   1.00
C4       0.27085    0.50007    0.99993   1.00
C4       0.22915    0.49993    1.00007   1.00
C3       0.29292    0.49941    0.96515   1.00
C3       0.20775    0.53448    1.00679   1.00
C3       0.29184    0.50092    1.03540   1.00
C3a      0.20737    0.46511    0.99292   1.00
C2       0.35517    0.49971    1.00148   1.00
C2       0.14483    0.50059    0.99865   1.00
C3       0.33434    0.49922    0.96598   1.00
C3       0.16641    0.53474    1.00606   1.00
C3       0.33320    0.50057    1.03614   1.00
C3       0.16585    0.46602    0.99220   1.00
H1       0.27808    0.49902    0.93727   1.00
H1       0.22315    0.56152    1.01235   1.00
H1       0.35032    0.49863    0.93875   1.00
H1       0.15105    0.56186    1.01125   1.00
H1       0.34821    0.50069    1.06394   1.00
H1       0.14957    0.43947    0.98689   1.00
C5       0.22761    0.42632    0.98676   1.00
H1       0.27599    0.50081    1.06273   1.00
H2       0.20646    0.40344    0.97776   1.00
H2       0.24897    0.42911    0.96253   1.00
N1       0.24708    0.41359    1.02258   1.00
C6       0.22988    0.40697    1.05728   1.00
C6       0.28540    0.40598    1.02673   1.00
C6       0.25757    0.39535    1.08405   1.00
C6       0.29289    0.39474    1.06462   1.00
H3       0.19901    0.41060    1.06298   1.00
H3       0.30691    0.40888    1.00376   1.00
H3       0.25259    0.38810    1.11435   1.00
H3       0.32097    0.38700    1.07673   1.00
C4       0.72915    0.50007    1.00007   1.00
C4       0.77085    0.49993    0.99993   1.00
C3       0.70708    0.49941    1.03485   1.00
C3       0.79225    0.53448    0.99321   1.00
C3       0.70816    0.50092    0.96460   1.00
C3a      0.79263    0.46511    1.00708   1.00
C2       0.64483    0.49971    0.99852   1.00
C2       0.85517    0.50059    1.00135   1.00
C3       0.66566    0.49922    1.03402   1.00
C3       0.83359    0.53474    0.99394   1.00
C3       0.66680    0.50057    0.96386   1.00
C3       0.83415    0.46602    1.00780   1.00
H1       0.72192    0.49902    1.06273   1.00
H1       0.77685    0.56152    0.98765   1.00
H1       0.64968    0.49863    1.06125   1.00
H1       0.84895    0.56186    0.98875   1.00
H1       0.65179    0.50069    0.93606   1.00
H1       0.85043    0.43947    1.01311   1.00
C5       0.77239    0.42632    1.01324   1.00
H1       0.72401    0.50081    0.93727   1.00
H2       0.79354    0.40344    1.02224   1.00
H2       0.75103    0.42911    1.03747   1.00
N1       0.75292    0.41359    0.97742   1.00
C6       0.77012    0.40697    0.94272   1.00
C6       0.71460    0.40598    0.97327   1.00
C6       0.74243    0.39535    0.91595   1.00
C6       0.70711    0.39474    0.93538   1.00
H3       0.80099    0.41060    0.93702   1.00
H3       0.69309    0.40888    0.99624   1.00
H3       0.74741    0.38810    0.88565   1.00
H3       0.67903    0.38700    0.92327   1.00
C4       0.49993    0.27085    1.00007   1.00
C4       0.50007    0.22915    0.99993   1.00
C3       0.46515    0.29292    0.99941   1.00
C3       0.50679    0.20775    1.03448   1.00
C3       0.53540    0.29184    1.00092   1.00
C3a      0.49292    0.20737    0.96511   1.00
C2       0.50148    0.35517    0.99971   1.00
C2       0.49865    0.14483    1.00059   1.00
C3       0.46598    0.33434    0.99922   1.00
C3       0.50606    0.16641    1.03474   1.00
C3       0.53614    0.33320    1.00057   1.00
C3       0.49220    0.16585    0.96602   1.00
H1       0.43727    0.27808    0.99902   1.00
H1       0.51235    0.22315    1.06152   1.00
H1       0.43875    0.35032    0.99863   1.00
H1       0.51125    0.15105    1.06186   1.00
H1       0.56394    0.34821    1.00069   1.00
H1       0.48689    0.14957    0.93947   1.00
C5       0.48676    0.22761    0.92632   1.00
H1       0.56273    0.27599    1.00081   1.00
H2       0.47776    0.20646    0.90344   1.00
H2       0.46253    0.24897    0.92911   1.00
N1       0.52258    0.24708    0.91359   1.00
C6       0.55728    0.22988    0.90697   1.00
C6       0.52673    0.28540    0.90598   1.00
C6       0.58405    0.25757    0.89535   1.00
C6       0.56462    0.29289    0.89474   1.00
H3       0.56298    0.19901    0.91060   1.00
H3       0.50376    0.30691    0.90888   1.00
H3       0.61435    0.25259    0.88810   1.00
H3       0.57673    0.32097    0.88700   1.00
C4       0.50007    0.49993    0.77085   1.00
C4       0.49993    0.50007    0.72915   1.00
C3       0.49941    0.46515    0.79292   1.00
C3       0.53448    0.50679    0.70775   1.00
C3       0.50092    0.53540    0.79184   1.00
C3a      0.46511    0.49292    0.70737   1.00
C2       0.49971    0.50148    0.85517   1.00
C2       0.50059    0.49865    0.64483   1.00
C3       0.49922    0.46598    0.83434   1.00
C3       0.53474    0.50606    0.66641   1.00
C3       0.50057    0.53614    0.83320   1.00
C3       0.46602    0.49220    0.66585   1.00
H1       0.49902    0.43727    0.77808   1.00
H1       0.56152    0.51235    0.72315   1.00
H1       0.49863    0.43875    0.85032   1.00
H1       0.56186    0.51125    0.65105   1.00
H1       0.50069    0.56394    0.84821   1.00
H1       0.43947    0.48689    0.64957   1.00
C5       0.42632    0.48676    0.72761   1.00
H1       0.50081    0.56273    0.77599   1.00
H2       0.40344    0.47776    0.70646   1.00
H2       0.42911    0.46253    0.74897   1.00
N1       0.41359    0.52258    0.74708   1.00
C6       0.40697    0.55728    0.72988   1.00
C6       0.40598    0.52673    0.78540   1.00
C6       0.39535    0.58405    0.75757   1.00
C6       0.39474    0.56462    0.79289   1.00
H3       0.41060    0.56298    0.69901   1.00
H3       0.40888    0.50376    0.80691   1.00
H3       0.38810    0.61435    0.75259   1.00
H3       0.38700    0.57673    0.82097   1.00
C4       0.50007    1.00007    0.72915   1.00
C4       0.49993    0.99993    0.77085   1.00
C3       0.49941    1.03485    0.70708   1.00
C3       0.53448    0.99321    0.79225   1.00
C3       0.50092    0.96460    0.70816   1.00
C3a      0.46511    1.00708    0.79263   1.00
C2       0.49971    0.99852    0.64483   1.00
C2       0.50059    1.00135    0.85517   1.00
C3       0.49922    1.03402    0.66566   1.00
C3       0.53474    0.99394    0.83359   1.00
C3       0.50057    0.96386    0.66680   1.00
C3       0.46602    1.00780    0.83415   1.00
H1       0.49902    1.06273    0.72192   1.00
H1       0.56152    0.98765    0.77685   1.00
H1       0.49863    1.06125    0.64968   1.00
H1       0.56186    0.98875    0.84895   1.00
H1       0.50069    0.93606    0.65179   1.00
H1       0.43947    1.01311    0.85043   1.00
C5       0.42632    1.01324    0.77239   1.00
H1       0.50081    0.93727    0.72401   1.00
H2       0.40344    1.02224    0.79354   1.00
H2       0.42911    1.03747    0.75103   1.00
N1       0.41359    0.97742    0.75292   1.00
C6       0.40697    0.94272    0.77012   1.00
C6       0.40598    0.97327    0.71460   1.00
C6       0.39535    0.91595    0.74243   1.00
C6       0.39474    0.93538    0.70711   1.00
H3       0.41060    0.93702    0.80099   1.00
H3       0.40888    0.99624    0.69309   1.00
H3       0.38810    0.88565    0.74741   1.00
H3       0.38700    0.92327    0.67903   1.00
C4       0.50007    1.22915    0.50007   1.00
C4       0.49993    1.27085    0.49993   1.00
C3       0.53485    1.20708    0.49941   1.00
C3       0.49321    1.29225    0.53448   1.00
C3       0.46460    1.20816    0.50092   1.00
C3a      0.50708    1.29263    0.46511   1.00
C2       0.49852    1.14483    0.49971   1.00
C2       0.50135    1.35517    0.50059   1.00
C3       0.53402    1.16566    0.49922   1.00
C3       0.49394    1.33359    0.53474   1.00
C3       0.46386    1.16680    0.50057   1.00
C3       0.50780    1.33415    0.46602   1.00
H1       0.56273    1.22192    0.49902   1.00
H1       0.48765    1.27685    0.56152   1.00
H1       0.56125    1.14968    0.49863   1.00
H1       0.48875    1.34895    0.56186   1.00
H1       0.43606    1.15179    0.50069   1.00
H1       0.51311    1.35043    0.43947   1.00
C5       0.51324    1.27239    0.42632   1.00
H1       0.43727    1.22401    0.50081   1.00
H2       0.52224    1.29354    0.40344   1.00
H2       0.53747    1.25103    0.42911   1.00
N1       0.47742    1.25292    0.41359   1.00
C6       0.44272    1.27012    0.40697   1.00
C6       0.47327    1.21460    0.40598   1.00
C6       0.41595    1.24243    0.39535   1.00
C6       0.43538    1.20711    0.39474   1.00
H3       0.43702    1.30099    0.41060   1.00
H3       0.49624    1.19309    0.40888   1.00
H3       0.38565    1.24741    0.38810   1.00
H3       0.42327    1.17903    0.38700   1.00
C4       0.27085    1.00007    0.49993   1.00
C4       0.22915    0.99993    0.50007   1.00
C3       0.29292    0.99941    0.46515   1.00
C3       0.20775    1.03448    0.50679   1.00
C3       0.29184    1.00092    0.53540   1.00
C3a      0.20737    0.96511    0.49292   1.00
C2       0.35517    0.99971    0.50148   1.00
C2       0.14483    1.00059    0.49865   1.00
C3       0.33434    0.99922    0.46598   1.00
C3       0.16641    1.03474    0.50606   1.00
C3       0.33320    1.00057    0.53614   1.00
C3       0.16585    0.96602    0.49220   1.00
H1       0.27808    0.99902    0.43727   1.00
H1       0.22315    1.06152    0.51235   1.00
H1       0.35032    0.99863    0.43875   1.00
H1       0.15105    1.06186    0.51125   1.00
H1       0.34821    1.00069    0.56394   1.00
H1       0.14957    0.93947    0.48689   1.00
C5       0.22761    0.92632    0.48676   1.00
H1       0.27599    1.00081    0.56273   1.00
H2       0.20646    0.90344    0.47776   1.00
H2       0.24897    0.92911    0.46253   1.00
N1       0.24708    0.91359    0.52258   1.00
C6       0.22988    0.90697    0.55728   1.00
C6       0.28540    0.90598    0.52673   1.00
C6       0.25757    0.89535    0.58405   1.00
C6       0.29289    0.89474    0.56462   1.00
H3       0.19901    0.91060    0.56298   1.00
H3       0.30691    0.90888    0.50376   1.00
H3       0.25259    0.88810    0.61435   1.00
H3       0.32097    0.88700    0.57673   1.00
C4       0.72915    1.00007    0.50007   1.00
C4       0.77085    0.99993    0.49993   1.00
C3       0.70708    0.99941    0.53485   1.00
C3       0.79225    1.03448    0.49321   1.00
C3       0.70816    1.00092    0.46460   1.00
C3a      0.79263    0.96511    0.50708   1.00
C2       0.64483    0.99971    0.49852   1.00
C2       0.85517    1.00059    0.50135   1.00
C3       0.66566    0.99922    0.53402   1.00
C3       0.83359    1.03474    0.49394   1.00
C3       0.66680    1.00057    0.46386   1.00
C3       0.83415    0.96602    0.50780   1.00
H1       0.72192    0.99902    0.56273   1.00
H1       0.77685    1.06152    0.48765   1.00
H1       0.64968    0.99863    0.56125   1.00
H1       0.84895    1.06186    0.48875   1.00
H1       0.65179    1.00069    0.43606   1.00
H1       0.85043    0.93947    0.51311   1.00
C5       0.77239    0.92632    0.51324   1.00
H1       0.72401    1.00081    0.43727   1.00
H2       0.79354    0.90344    0.52224   1.00
H2       0.75103    0.92911    0.53747   1.00
N1       0.75292    0.91359    0.47742   1.00
C6       0.77012    0.90697    0.44272   1.00
C6       0.71460    0.90598    0.47327   1.00
C6       0.74243    0.89535    0.41595   1.00
C6       0.70711    0.89474    0.43538   1.00
H3       0.80099    0.91060    0.43702   1.00
H3       0.69309    0.90888    0.49624   1.00
H3       0.74741    0.88810    0.38565   1.00
H3       0.67903    0.88700    0.42327   1.00
C4       0.49993    0.77085    0.50007   1.00
C4       0.50007    0.72915    0.49993   1.00
C3       0.46515    0.79292    0.49941   1.00
C3       0.50679    0.70775    0.53448   1.00
C3       0.53540    0.79184    0.50092   1.00
C3a      0.49292    0.70737    0.46511   1.00
C2       0.50148    0.85517    0.49971   1.00
C2       0.49865    0.64483    0.50059   1.00
C3       0.46598    0.83434    0.49922   1.00
C3       0.50606    0.66641    0.53474   1.00
C3       0.53614    0.83320    0.50057   1.00
C3       0.49220    0.66585    0.46602   1.00
H1       0.43727    0.77808    0.49902   1.00
H1       0.51235    0.72315    0.56152   1.00
H1       0.43875    0.85032    0.49863   1.00
H1       0.51125    0.65105    0.56186   1.00
H1       0.56394    0.84821    0.50069   1.00
H1       0.48689    0.64957    0.43947   1.00
C5       0.48676    0.72761    0.42632   1.00
H1       0.56273    0.77599    0.50081   1.00
H2       0.47776    0.70646    0.40344   1.00
H2       0.46253    0.74897    0.42911   1.00
N1       0.52258    0.74708    0.41359   1.00
C6       0.55728    0.72988    0.40697   1.00
C6       0.52673    0.78540    0.40598   1.00
C6       0.58405    0.75757    0.39535   1.00
C6       0.56462    0.79289    0.39474   1.00
H3       0.56298    0.69901    0.41060   1.00
H3       0.50376    0.80691    0.40888   1.00
H3       0.61435    0.75259    0.38810   1.00
H3       0.57673    0.82097    0.38700   1.00
C4       0.50007    0.99993    0.27085   1.00
C4       0.49993    1.00007    0.22915   1.00
C3       0.49941    0.96515    0.29292   1.00
C3       0.53448    1.00679    0.20775   1.00
C3       0.50092    1.03540    0.29184   1.00
C3a      0.46511    0.99292    0.20737   1.00
C2       0.49971    1.00148    0.35517   1.00
C2       0.50059    0.99865    0.14483   1.00
C3       0.49922    0.96598    0.33434   1.00
C3       0.53474    1.00606    0.16641   1.00
C3       0.50057    1.03614    0.33320   1.00
C3       0.46602    0.99220    0.16585   1.00
H1       0.49902    0.93727    0.27808   1.00
H1       0.56152    1.01235    0.22315   1.00
H1       0.49863    0.93875    0.35032   1.00
H1       0.56186    1.01125    0.15105   1.00
H1       0.50069    1.06394    0.34821   1.00
H1       0.43947    0.98689    0.14957   1.00
C5       0.42632    0.98676    0.22761   1.00
H1       0.50081    1.06273    0.27599   1.00
H2       0.40344    0.97776    0.20646   1.00
H2       0.42911    0.96253    0.24897   1.00
N1       0.41359    1.02258    0.24708   1.00
C6       0.40697    1.05728    0.22988   1.00
C6       0.40598    1.02673    0.28540   1.00
C6       0.39535    1.08405    0.25757   1.00
C6       0.39474    1.06462    0.29289   1.00
H3       0.41060    1.06298    0.19901   1.00
H3       0.40888    1.00376    0.30691   1.00
H3       0.38810    1.11435    0.25259   1.00
H3       0.38700    1.07673    0.32097   1.00
C4       1.00007    0.50007    0.72915   1.00
C4       0.99993    0.49993    0.77085   1.00
C3       0.99941    0.53485    0.70708   1.00
C3       1.03448    0.49321    0.79225   1.00
C3       1.00092    0.46460    0.70816   1.00
C3a      0.96511    0.50708    0.79263   1.00
C2       0.99971    0.49852    0.64483   1.00
C2       1.00059    0.50135    0.85517   1.00
C3       0.99922    0.53402    0.66566   1.00
C3       1.03474    0.49394    0.83359   1.00
C3       1.00057    0.46386    0.66680   1.00
C3       0.96602    0.50780    0.83415   1.00
H1       0.99902    0.56273    0.72192   1.00
H1       1.06152    0.48765    0.77685   1.00
H1       0.99863    0.56125    0.64968   1.00
H1       1.06186    0.48875    0.84895   1.00
H1       1.00069    0.43606    0.65179   1.00
H1       0.93947    0.51311    0.85043   1.00
C5       0.92632    0.51324    0.77239   1.00
H1       1.00081    0.43727    0.72401   1.00
H2       0.90344    0.52224    0.79354   1.00
H2       0.92911    0.53747    0.75103   1.00
N1       0.91359    0.47742    0.75292   1.00
C6       0.90697    0.44272    0.77012   1.00
C6       0.90598    0.47327    0.71460   1.00
C6       0.89535    0.41595    0.74243   1.00
C6       0.89474    0.43538    0.70711   1.00
H3       0.91060    0.43702    0.80099   1.00
H3       0.90888    0.49624    0.69309   1.00
H3       0.88810    0.38565    0.74741   1.00
H3       0.88700    0.42327    0.67903   1.00
C4       1.00007    0.72915    0.50007   1.00
C4       0.99993    0.77085    0.49993   1.00
C3       1.03485    0.70708    0.49941   1.00
C3       0.99321    0.79225    0.53448   1.00
C3       0.96460    0.70816    0.50092   1.00
C3a      1.00708    0.79263    0.46511   1.00
C2       0.99852    0.64483    0.49971   1.00
C2       1.00135    0.85517    0.50059   1.00
C3       1.03402    0.66566    0.49922   1.00
C3       0.99394    0.83359    0.53474   1.00
C3       0.96386    0.66680    0.50057   1.00
C3       1.00780    0.83415    0.46602   1.00
H1       1.06273    0.72192    0.49902   1.00
H1       0.98765    0.77685    0.56152   1.00
H1       1.06125    0.64968    0.49863   1.00
H1       0.98875    0.84895    0.56186   1.00
H1       0.93606    0.65179    0.50069   1.00
H1       1.01311    0.85043    0.43947   1.00
C5       1.01324    0.77239    0.42632   1.00
H1       0.93727    0.72401    0.50081   1.00
H2       1.02224    0.79354    0.40344   1.00
H2       1.03747    0.75103    0.42911   1.00
N1       0.97742    0.75292    0.41359   1.00
C6       0.94272    0.77012    0.40697   1.00
C6       0.97327    0.71460    0.40598   1.00
C6       0.91595    0.74243    0.39535   1.00
C6       0.93538    0.70711    0.39474   1.00
H3       0.93702    0.80099    0.41060   1.00
H3       0.99624    0.69309    0.40888   1.00
H3       0.88565    0.74741    0.38810   1.00
H3       0.92327    0.67903    0.38700   1.00
C4       0.77085    0.50007    0.49993   1.00
C4       0.72915    0.49993    0.50007   1.00
C3       0.79292    0.49941    0.46515   1.00
C3       0.70775    0.53448    0.50679   1.00
C3       0.79184    0.50092    0.53540   1.00
C3a      0.70737    0.46511    0.49292   1.00
C2       0.85517    0.49971    0.50148   1.00
C2       0.64483    0.50059    0.49865   1.00
C3       0.83434    0.49922    0.46598   1.00
C3       0.66641    0.53474    0.50606   1.00
C3       0.83320    0.50057    0.53614   1.00
C3       0.66585    0.46602    0.49220   1.00
H1       0.77808    0.49902    0.43727   1.00
H1       0.72315    0.56152    0.51235   1.00
H1       0.85032    0.49863    0.43875   1.00
H1       0.65105    0.56186    0.51125   1.00
H1       0.84821    0.50069    0.56394   1.00
H1       0.64957    0.43947    0.48689   1.00
C5       0.72761    0.42632    0.48676   1.00
H1       0.77599    0.50081    0.56273   1.00
H2       0.70646    0.40344    0.47776   1.00
H2       0.74897    0.42911    0.46253   1.00
N1       0.74708    0.41359    0.52258   1.00
C6       0.72988    0.40697    0.55728   1.00
C6       0.78540    0.40598    0.52673   1.00
C6       0.75757    0.39535    0.58405   1.00
C6       0.79289    0.39474    0.56462   1.00
H3       0.69901    0.41060    0.56298   1.00
H3       0.80691    0.40888    0.50376   1.00
H3       0.75259    0.38810    0.61435   1.00
H3       0.82097    0.38700    0.57673   1.00
C4       1.22915    0.50007    0.50007   1.00
C4       1.27085    0.49993    0.49993   1.00
C3       1.20708    0.49941    0.53485   1.00
C3       1.29225    0.53448    0.49321   1.00
C3       1.20816    0.50092    0.46460   1.00
C3a      1.29263    0.46511    0.50708   1.00
C2       1.14483    0.49971    0.49852   1.00
C2       1.35517    0.50059    0.50135   1.00
C3       1.16566    0.49922    0.53402   1.00
C3       1.33359    0.53474    0.49394   1.00
C3       1.16680    0.50057    0.46386   1.00
C3       1.33415    0.46602    0.50780   1.00
H1       1.22192    0.49902    0.56273   1.00
H1       1.27685    0.56152    0.48765   1.00
H1       1.14968    0.49863    0.56125   1.00
H1       1.34895    0.56186    0.48875   1.00
H1       1.15179    0.50069    0.43606   1.00
H1       1.35043    0.43947    0.51311   1.00
C5       1.27239    0.42632    0.51324   1.00
H1       1.22401    0.50081    0.43727   1.00
H2       1.29354    0.40344    0.52224   1.00
H2       1.25103    0.42911    0.53747   1.00
N1       1.25292    0.41359    0.47742   1.00
C6       1.27012    0.40697    0.44272   1.00
C6       1.21460    0.40598    0.47327   1.00
C6       1.24243    0.39535    0.41595   1.00
C6       1.20711    0.39474    0.43538   1.00
H3       1.30099    0.41060    0.43702   1.00
H3       1.19309    0.40888    0.49624   1.00
H3       1.24741    0.38810    0.38565   1.00
H3       1.17903    0.38700    0.42327   1.00
C4       0.99993    0.27085    0.50007   1.00
C4       1.00007    0.22915    0.49993   1.00
C3       0.96515    0.29292    0.49941   1.00
C3       1.00679    0.20775    0.53448   1.00
C3       1.03540    0.29184    0.50092   1.00
C3a      0.99292    0.20737    0.46511   1.00
C2       1.00148    0.35517    0.49971   1.00
C2       0.99865    0.14483    0.50059   1.00
C3       0.96598    0.33434    0.49922   1.00
C3       1.00606    0.16641    0.53474   1.00
C3       1.03614    0.33320    0.50057   1.00
C3       0.99220    0.16585    0.46602   1.00
H1       0.93727    0.27808    0.49902   1.00
H1       1.01235    0.22315    0.56152   1.00
H1       0.93875    0.35032    0.49863   1.00
H1       1.01125    0.15105    0.56186   1.00
H1       1.06394    0.34821    0.50069   1.00
H1       0.98689    0.14957    0.43947   1.00
C5       0.98676    0.22761    0.42632   1.00
H1       1.06273    0.27599    0.50081   1.00
H2       0.97776    0.20646    0.40344   1.00
H2       0.96253    0.24897    0.42911   1.00
N1       1.02258    0.24708    0.41359   1.00
C6       1.05728    0.22988    0.40697   1.00
C6       1.02673    0.28540    0.40598   1.00
C6       1.08405    0.25757    0.39535   1.00
C6       1.06462    0.29289    0.39474   1.00
H3       1.06298    0.19901    0.41060   1.00
H3       1.00376    0.30691    0.40888   1.00
H3       1.11435    0.25259    0.38810   1.00
H3       1.07673    0.32097    0.38700   1.00
C4       1.00007    0.49993    0.27085   1.00
C4       0.99993    0.50007    0.22915   1.00
C3       0.99941    0.46515    0.29292   1.00
C3       1.03448    0.50679    0.20775   1.00
C3       1.00092    0.53540    0.29184   1.00
C3a      0.96511    0.49292    0.20737   1.00
C2       0.99971    0.50148    0.35517   1.00
C2       1.00059    0.49865    0.14483   1.00
C3       0.99922    0.46598    0.33434   1.00
C3       1.03474    0.50606    0.16641   1.00
C3       1.00057    0.53614    0.33320   1.00
C3       0.96602    0.49220    0.16585   1.00
H1       0.99902    0.43727    0.27808   1.00
H1       1.06152    0.51235    0.22315   1.00
H1       0.99863    0.43875    0.35032   1.00
H1       1.06186    0.51125    0.15105   1.00
H1       1.00069    0.56394    0.34821   1.00
H1       0.93947    0.48689    0.14957   1.00
C5       0.92632    0.48676    0.22761   1.00
H1       1.00081    0.56273    0.27599   1.00
H2       0.90344    0.47776    0.20646   1.00
H2       0.92911    0.46253    0.24897   1.00
N1       0.91359    0.52258    0.24708   1.00
C6       0.90697    0.55728    0.22988   1.00
C6       0.90598    0.52673    0.28540   1.00
C6       0.89535    0.58405    0.25757   1.00
C6       0.89474    0.56462    0.29289   1.00
H3       0.91060    0.56298    0.19901   1.00
H3       0.90888    0.50376    0.30691   1.00
H3       0.88810    0.61435    0.25259   1.00
H3       0.88700    0.57673    0.32097   1.00
