data_IRMOF10_SG202_interpen_Ligand1lp_label_l.

_audit_creation_method             'generated by an auxiliary program of Tobunporous'

_symmetry_space_group_name_H-M     'P 1'
_symmetry_Int_Tables_number        1
_symmetry_cell_setting             triclinic

_cell_length_a                    34.2800
_cell_length_b                    34.2800
_cell_length_c                    34.2800
_cell_angle_alpha                 90.0000
_cell_angle_beta                  90.0000
_cell_angle_gamma                 90.0000

loop_
_atom_site_label
_atom_site_fract_x
_atom_site_fract_y
_atom_site_fract_z
_atom_site_occupancy
O1       0.75000    0.75000    0.75000   1.00
Zn1      0.71720    0.78280    0.78280   1.00
Zn1      0.78280    0.71720    0.78280   1.00
Zn1      0.78280    0.78280    0.71720   1.00
Zn1      0.71720    0.71720    0.71720   1.00
O2       0.72650    0.77350    0.83820   1.00
O2       0.72650    0.83820    0.77350   1.00
O2       0.66180    0.77350    0.77350   1.00
O2       0.77350    0.72650    0.83820   1.00
O2       0.83820    0.72650    0.77350   1.00
O2       0.77350    0.66180    0.77350   1.00
O2       0.77350    0.83820    0.72650   1.00
O2       0.83820    0.77350    0.72650   1.00
O2       0.77350    0.77350    0.66180   1.00
O2       0.66180    0.72650    0.72650   1.00
O2       0.72650    0.66180    0.72650   1.00
O2       0.72650    0.72650    0.66180   1.00
C1       0.75000    0.75000    0.85520   1.00
C1       0.75000    0.85520    0.75000   1.00
C1       0.64480    0.75000    0.75000   1.00
C1       0.85520    0.75000    0.75000   1.00
C1       0.75000    0.64480    0.75000   1.00
C1       0.75000    0.75000    0.64480   1.00
O1       0.25000    0.25000    0.75000   1.00
Zn1      0.21720    0.28280    0.78280   1.00
Zn1      0.28280    0.21720    0.78280   1.00
Zn1      0.28280    0.28280    0.71720   1.00
Zn1      0.21720    0.21720    0.71720   1.00
O2       0.22650    0.27350    0.83820   1.00
O2       0.22650    0.33820    0.77350   1.00
O2       0.16180    0.27350    0.77350   1.00
O2       0.27350    0.22650    0.83820   1.00
O2       0.33820    0.22650    0.77350   1.00
O2       0.27350    0.16180    0.77350   1.00
O2       0.27350    0.33820    0.72650   1.00
O2       0.33820    0.27350    0.72650   1.00
O2       0.27350    0.27350    0.66180   1.00
O2       0.16180    0.22650    0.72650   1.00
O2       0.22650    0.16180    0.72650   1.00
O2       0.22650    0.22650    0.66180   1.00
C1       0.25000    0.25000    0.85520   1.00
C1       0.25000    0.35520    0.75000   1.00
C1       0.14480    0.25000    0.75000   1.00
C1       0.35520    0.25000    0.75000   1.00
C1       0.25000    0.14480    0.75000   1.00
C1       0.25000    0.25000    0.64480   1.00
O1       0.25000    0.75000    0.25000   1.00
Zn1      0.21720    0.78280    0.28280   1.00
Zn1      0.28280    0.71720    0.28280   1.00
Zn1      0.28280    0.78280    0.21720   1.00
Zn1      0.21720    0.71720    0.21720   1.00
O2       0.22650    0.77350    0.33820   1.00
O2       0.22650    0.83820    0.27350   1.00
O2       0.16180    0.77350    0.27350   1.00
O2       0.27350    0.72650    0.33820   1.00
O2       0.33820    0.72650    0.27350   1.00
O2       0.27350    0.66180    0.27350   1.00
O2       0.27350    0.83820    0.22650   1.00
O2       0.33820    0.77350    0.22650   1.00
O2       0.27350    0.77350    0.16180   1.00
O2       0.16180    0.72650    0.22650   1.00
O2       0.22650    0.66180    0.22650   1.00
O2       0.22650    0.72650    0.16180   1.00
C1       0.25000    0.75000    0.35520   1.00
C1       0.25000    0.85520    0.25000   1.00
C1       0.14480    0.75000    0.25000   1.00
C1       0.35520    0.75000    0.25000   1.00
C1       0.25000    0.64480    0.25000   1.00
C1       0.25000    0.75000    0.14480   1.00
O1       0.75000    0.25000    0.25000   1.00
Zn1      0.71720    0.28280    0.28280   1.00
Zn1      0.78280    0.21720    0.28280   1.00
Zn1      0.78280    0.28280    0.21720   1.00
Zn1      0.71720    0.21720    0.21720   1.00
O2       0.72650    0.27350    0.33820   1.00
O2       0.72650    0.33820    0.27350   1.00
O2       0.66180    0.27350    0.27350   1.00
O2       0.77350    0.22650    0.33820   1.00
O2       0.83820    0.22650    0.27350   1.00
O2       0.77350    0.16180    0.27350   1.00
O2       0.77350    0.33820    0.22650   1.00
O2       0.83820    0.27350    0.22650   1.00
O2       0.77350    0.27350    0.16180   1.00
O2       0.66180    0.22650    0.22650   1.00
O2       0.72650    0.16180    0.22650   1.00
O2       0.72650    0.22650    0.16180   1.00
C1       0.75000    0.25000    0.35520   1.00
C1       0.75000    0.35520    0.25000   1.00
C1       0.64480    0.25000    0.25000   1.00
C1       0.85520    0.25000    0.25000   1.00
C1       0.75000    0.14480    0.25000   1.00
C1       0.75000    0.25000    0.14480   1.00
O1       0.25000    0.25000    0.25000   1.00
Zn1      0.28280    0.21720    0.21720   1.00
Zn1      0.21720    0.28280    0.21720   1.00
Zn1      0.21720    0.21720    0.28280   1.00
Zn1      0.28280    0.28280    0.28280   1.00
O2       0.27350    0.22650    0.16180   1.00
O2       0.27350    0.16180    0.22650   1.00
O2       0.33820    0.22650    0.22650   1.00
O2       0.22650    0.27350    0.16180   1.00
O2       0.16180    0.27350    0.22650   1.00
O2       0.22650    0.33820    0.22650   1.00
O2       0.22650    0.16180    0.27350   1.00
O2       0.16180    0.22650    0.27350   1.00
O2       0.22650    0.22650    0.33820   1.00
O2       0.33820    0.27350    0.27350   1.00
O2       0.27350    0.33820    0.27350   1.00
O2       0.27350    0.27350    0.33820   1.00
C1       0.25000    0.25000    0.14480   1.00
C1       0.25000    0.14480    0.25000   1.00
C1       0.35520    0.25000    0.25000   1.00
C1       0.14480    0.25000    0.25000   1.00
C1       0.25000    0.35520    0.25000   1.00
C1       0.25000    0.25000    0.35520   1.00
O1       0.75000    0.75000    0.25000   1.00
Zn1      0.78280    0.71720    0.21720   1.00
Zn1      0.71720    0.78280    0.21720   1.00
Zn1      0.71720    0.71720    0.28280   1.00
Zn1      0.78280    0.78280    0.28280   1.00
O2       0.77350    0.72650    0.16180   1.00
O2       0.77350    0.66180    0.22650   1.00
O2       0.83820    0.72650    0.22650   1.00
O2       0.72650    0.77350    0.16180   1.00
O2       0.66180    0.77350    0.22650   1.00
O2       0.72650    0.83820    0.22650   1.00
O2       0.72650    0.66180    0.27350   1.00
O2       0.66180    0.72650    0.27350   1.00
O2       0.72650    0.72650    0.33820   1.00
O2       0.83820    0.77350    0.27350   1.00
O2       0.77350    0.83820    0.27350   1.00
O2       0.77350    0.77350    0.33820   1.00
C1       0.75000    0.75000    0.14480   1.00
C1       0.75000    0.64480    0.25000   1.00
C1       0.85520    0.75000    0.25000   1.00
C1       0.64480    0.75000    0.25000   1.00
C1       0.75000    0.85520    0.25000   1.00
C1       0.75000    0.75000    0.35520   1.00
O1       0.75000    0.25000    0.75000   1.00
Zn1      0.78280    0.21720    0.71720   1.00
Zn1      0.71720    0.28280    0.71720   1.00
Zn1      0.71720    0.21720    0.78280   1.00
Zn1      0.78280    0.28280    0.78280   1.00
O2       0.77350    0.22650    0.66180   1.00
O2       0.77350    0.16180    0.72650   1.00
O2       0.83820    0.22650    0.72650   1.00
O2       0.72650    0.27350    0.66180   1.00
O2       0.66180    0.27350    0.72650   1.00
O2       0.72650    0.33820    0.72650   1.00
O2       0.72650    0.16180    0.77350   1.00
O2       0.66180    0.22650    0.77350   1.00
O2       0.72650    0.22650    0.83820   1.00
O2       0.83820    0.27350    0.77350   1.00
O2       0.77350    0.33820    0.77350   1.00
O2       0.77350    0.27350    0.83820   1.00
C1       0.75000    0.25000    0.64480   1.00
C1       0.75000    0.14480    0.75000   1.00
C1       0.85520    0.25000    0.75000   1.00
C1       0.64480    0.25000    0.75000   1.00
C1       0.75000    0.35520    0.75000   1.00
C1       0.75000    0.25000    0.85520   1.00
O1       0.25000    0.75000    0.75000   1.00
Zn1      0.28280    0.71720    0.71720   1.00
Zn1      0.21720    0.78280    0.71720   1.00
Zn1      0.21720    0.71720    0.78280   1.00
Zn1      0.28280    0.78280    0.78280   1.00
O2       0.27350    0.72650    0.66180   1.00
O2       0.27350    0.66180    0.72650   1.00
O2       0.33820    0.72650    0.72650   1.00
O2       0.22650    0.77350    0.66180   1.00
O2       0.16180    0.77350    0.72650   1.00
O2       0.22650    0.83820    0.72650   1.00
O2       0.22650    0.66180    0.77350   1.00
O2       0.16180    0.72650    0.77350   1.00
O2       0.22650    0.72650    0.83820   1.00
O2       0.33820    0.77350    0.77350   1.00
O2       0.27350    0.83820    0.77350   1.00
O2       0.27350    0.77350    0.83820   1.00
C1       0.25000    0.75000    0.64480   1.00
C1       0.25000    0.64480    0.75000   1.00
C1       0.35520    0.75000    0.75000   1.00
C1       0.14480    0.75000    0.75000   1.00
C1       0.25000    0.85520    0.75000   1.00
C1       0.25000    0.75000    0.85520   1.00
O1       1.00000    1.00000    1.00000   1.00
Zn1      0.96720    1.03280    1.03280   1.00
Zn1      1.03280    0.96720    1.03280   1.00
Zn1      1.03280    1.03280    0.96720   1.00
Zn1      0.96720    0.96720    0.96720   1.00
O2       0.97650    1.02350    1.08820   1.00
O2       0.97650    1.08820    1.02350   1.00
O2       0.91180    1.02350    1.02350   1.00
O2       1.02350    0.97650    1.08820   1.00
O2       1.08820    0.97650    1.02350   1.00
O2       1.02350    0.91180    1.02350   1.00
O2       1.02350    1.08820    0.97650   1.00
O2       1.08820    1.02350    0.97650   1.00
O2       1.02350    1.02350    0.91180   1.00
O2       0.91180    0.97650    0.97650   1.00
O2       0.97650    0.91180    0.97650   1.00
O2       0.97650    0.97650    0.91180   1.00
C1       1.00000    1.00000    1.10520   1.00
C1       1.00000    1.10520    1.00000   1.00
C1       0.89480    1.00000    1.00000   1.00
C1       1.10520    1.00000    1.00000   1.00
C1       1.00000    0.89480    1.00000   1.00
C1       1.00000    1.00000    0.89480   1.00
O1       0.50000    0.50000    1.00000   1.00
Zn1      0.46720    0.53280    1.03280   1.00
Zn1      0.53280    0.46720    1.03280   1.00
Zn1      0.53280    0.53280    0.96720   1.00
Zn1      0.46720    0.46720    0.96720   1.00
O2       0.47650    0.52350    1.08820   1.00
O2       0.47650    0.58820    1.02350   1.00
O2       0.41180    0.52350    1.02350   1.00
O2       0.52350    0.47650    1.08820   1.00
O2       0.58820    0.47650    1.02350   1.00
O2       0.52350    0.41180    1.02350   1.00
O2       0.52350    0.58820    0.97650   1.00
O2       0.58820    0.52350    0.97650   1.00
O2       0.52350    0.52350    0.91180   1.00
O2       0.41180    0.47650    0.97650   1.00
O2       0.47650    0.41180    0.97650   1.00
O2       0.47650    0.47650    0.91180   1.00
C1       0.50000    0.50000    1.10520   1.00
C1       0.50000    0.60520    1.00000   1.00
C1       0.39480    0.50000    1.00000   1.00
C1       0.60520    0.50000    1.00000   1.00
C1       0.50000    0.39480    1.00000   1.00
C1       0.50000    0.50000    0.89480   1.00
O1       0.50000    1.00000    0.50000   1.00
Zn1      0.46720    1.03280    0.53280   1.00
Zn1      0.53280    0.96720    0.53280   1.00
Zn1      0.53280    1.03280    0.46720   1.00
Zn1      0.46720    0.96720    0.46720   1.00
O2       0.47650    1.02350    0.58820   1.00
O2       0.47650    1.08820    0.52350   1.00
O2       0.41180    1.02350    0.52350   1.00
O2       0.52350    0.97650    0.58820   1.00
O2       0.58820    0.97650    0.52350   1.00
O2       0.52350    0.91180    0.52350   1.00
O2       0.52350    1.08820    0.47650   1.00
O2       0.58820    1.02350    0.47650   1.00
O2       0.52350    1.02350    0.41180   1.00
O2       0.41180    0.97650    0.47650   1.00
O2       0.47650    0.91180    0.47650   1.00
O2       0.47650    0.97650    0.41180   1.00
C1       0.50000    1.00000    0.60520   1.00
C1       0.50000    1.10520    0.50000   1.00
C1       0.39480    1.00000    0.50000   1.00
C1       0.60520    1.00000    0.50000   1.00
C1       0.50000    0.89480    0.50000   1.00
C1       0.50000    1.00000    0.39480   1.00
O1       1.00000    0.50000    0.50000   1.00
Zn1      0.96720    0.53280    0.53280   1.00
Zn1      1.03280    0.46720    0.53280   1.00
Zn1      1.03280    0.53280    0.46720   1.00
Zn1      0.96720    0.46720    0.46720   1.00
O2       0.97650    0.52350    0.58820   1.00
O2       0.97650    0.58820    0.52350   1.00
O2       0.91180    0.52350    0.52350   1.00
O2       1.02350    0.47650    0.58820   1.00
O2       1.08820    0.47650    0.52350   1.00
O2       1.02350    0.41180    0.52350   1.00
O2       1.02350    0.58820    0.47650   1.00
O2       1.08820    0.52350    0.47650   1.00
O2       1.02350    0.52350    0.41180   1.00
O2       0.91180    0.47650    0.47650   1.00
O2       0.97650    0.41180    0.47650   1.00
O2       0.97650    0.47650    0.41180   1.00
C1       1.00000    0.50000    0.60520   1.00
C1       1.00000    0.60520    0.50000   1.00
C1       0.89480    0.50000    0.50000   1.00
C1       1.10520    0.50000    0.50000   1.00
C1       1.00000    0.39480    0.50000   1.00
C1       1.00000    0.50000    0.39480   1.00
O1       0.50000    0.50000    0.50000   1.00
Zn1      0.53280    0.46720    0.46720   1.00
Zn1      0.46720    0.53280    0.46720   1.00
Zn1      0.46720    0.46720    0.53280   1.00
Zn1      0.53280    0.53280    0.53280   1.00
O2       0.52350    0.47650    0.41180   1.00
O2       0.52350    0.41180    0.47650   1.00
O2       0.58820    0.47650    0.47650   1.00
O2       0.47650    0.52350    0.41180   1.00
O2       0.41180    0.52350    0.47650   1.00
O2       0.47650    0.58820    0.47650   1.00
O2       0.47650    0.41180    0.52350   1.00
O2       0.41180    0.47650    0.52350   1.00
O2       0.47650    0.47650    0.58820   1.00
O2       0.58820    0.52350    0.52350   1.00
O2       0.52350    0.58820    0.52350   1.00
O2       0.52350    0.52350    0.58820   1.00
C1       0.50000    0.50000    0.39480   1.00
C1       0.50000    0.39480    0.50000   1.00
C1       0.60520    0.50000    0.50000   1.00
C1       0.39480    0.50000    0.50000   1.00
C1       0.50000    0.60520    0.50000   1.00
C1       0.50000    0.50000    0.60520   1.00
O1       1.00000    1.00000    0.50000   1.00
Zn1      1.03280    0.96720    0.46720   1.00
Zn1      0.96720    1.03280    0.46720   1.00
Zn1      0.96720    0.96720    0.53280   1.00
Zn1      1.03280    1.03280    0.53280   1.00
O2       1.02350    0.97650    0.41180   1.00
O2       1.02350    0.91180    0.47650   1.00
O2       1.08820    0.97650    0.47650   1.00
O2       0.97650    1.02350    0.41180   1.00
O2       0.91180    1.02350    0.47650   1.00
O2       0.97650    1.08820    0.47650   1.00
O2       0.97650    0.91180    0.52350   1.00
O2       0.91180    0.97650    0.52350   1.00
O2       0.97650    0.97650    0.58820   1.00
O2       1.08820    1.02350    0.52350   1.00
O2       1.02350    1.08820    0.52350   1.00
O2       1.02350    1.02350    0.58820   1.00
C1       1.00000    1.00000    0.39480   1.00
C1       1.00000    0.89480    0.50000   1.00
C1       1.10520    1.00000    0.50000   1.00
C1       0.89480    1.00000    0.50000   1.00
C1       1.00000    1.10520    0.50000   1.00
C1       1.00000    1.00000    0.60520   1.00
O1       1.00000    0.50000    1.00000   1.00
Zn1      1.03280    0.46720    0.96720   1.00
Zn1      0.96720    0.53280    0.96720   1.00
Zn1      0.96720    0.46720    1.03280   1.00
Zn1      1.03280    0.53280    1.03280   1.00
O2       1.02350    0.47650    0.91180   1.00
O2       1.02350    0.41180    0.97650   1.00
O2       1.08820    0.47650    0.97650   1.00
O2       0.97650    0.52350    0.91180   1.00
O2       0.91180    0.52350    0.97650   1.00
O2       0.97650    0.58820    0.97650   1.00
O2       0.97650    0.41180    1.02350   1.00
O2       0.91180    0.47650    1.02350   1.00
O2       0.97650    0.47650    1.08820   1.00
O2       1.08820    0.52350    1.02350   1.00
O2       1.02350    0.58820    1.02350   1.00
O2       1.02350    0.52350    1.08820   1.00
C1       1.00000    0.50000    0.89480   1.00
C1       1.00000    0.39480    1.00000   1.00
C1       1.10520    0.50000    1.00000   1.00
C1       0.89480    0.50000    1.00000   1.00
C1       1.00000    0.60520    1.00000   1.00
C1       1.00000    0.50000    1.10520   1.00
O1       0.50000    1.00000    1.00000   1.00
Zn1      0.53280    0.96720    0.96720   1.00
Zn1      0.46720    1.03280    0.96720   1.00
Zn1      0.46720    0.96720    1.03280   1.00
Zn1      0.53280    1.03280    1.03280   1.00
O2       0.52350    0.97650    0.91180   1.00
O2       0.52350    0.91180    0.97650   1.00
O2       0.58820    0.97650    0.97650   1.00
O2       0.47650    1.02350    0.91180   1.00
O2       0.41180    1.02350    0.97650   1.00
O2       0.47650    1.08820    0.97650   1.00
O2       0.47650    0.91180    1.02350   1.00
O2       0.41180    0.97650    1.02350   1.00
O2       0.47650    0.97650    1.08820   1.00
O2       0.58820    1.02350    1.02350   1.00
O2       0.52350    1.08820    1.02350   1.00
O2       0.52350    1.02350    1.08820   1.00
C1       0.50000    1.00000    0.89480   1.00
C1       0.50000    0.89480    1.00000   1.00
C1       0.60520    1.00000    1.00000   1.00
C1       0.39480    1.00000    1.00000   1.00
C1       0.50000    1.10520    1.00000   1.00
C1       0.50000    1.00000    1.10520   1.00
C5       0.85056    0.67279    1.13218   1.00
H2       0.85904    0.70007    1.14745   1.00
H2       0.87427    0.66681    1.11090   1.00
C5       0.84741    0.63928    1.16194   1.00
C5       0.88796    0.62232    1.17123   1.00
H2       0.82849    0.61566    1.15015   1.00
O3       0.71710    0.68729    0.98000   1.00
C4       0.74997    0.75042    1.02100   1.00
C3c      0.78121    0.73480    1.04243   1.00
H1       0.80599    0.72253    1.02725   1.00
C3d      0.71821    0.76677    1.04135   1.00
C3       0.78081    0.73421    1.08354   1.00
O2       0.81435    0.72286    1.10248   1.00
C3       0.71739    0.76555    1.08227   1.00
H1       0.69179    0.77719    1.09657   1.00
C2       0.74854    0.74948    1.10439   1.00
C5       0.67594    0.68884    0.97879   1.00
H2       0.66448    0.68749    0.94838   1.00
H2       0.66483    0.71613    0.99266   1.00
C5       0.66047    0.65372    1.00129   1.00
H2       0.67280    0.65447    1.03137   1.00
H2       0.67144    0.62665    0.98698   1.00
C5       0.61556    0.65391    1.00262   1.00
H2       0.60305    0.65344    0.97268   1.00
H2       0.60461    0.68026    1.01811   1.00
C5       0.60067    0.61757    1.02445   1.00
C5       0.69069    0.81925    1.01105   1.00
C5       0.81281    0.68245    1.11070   1.00
H2       0.71587    0.82276    0.99088   1.00
H2       0.69549    0.83816    1.03712   1.00
H2       0.81091    0.66544    1.08300   1.00
H2       0.78697    0.67438    1.12895   1.00
H2       0.83514    0.64976    1.19030   1.00
H2       0.67965    0.86707    0.94247   1.00
H2       0.67212    0.89386    0.98763   1.00
C2       0.74748    0.74909    0.89605   1.00
C3       0.76596    0.78005    0.91597   1.00
O2       0.77459    0.81435    0.89674   1.00
C3       0.73177    0.71802    0.91826   1.00
H1       0.71834    0.69340    0.90385   1.00
C3a      0.76744    0.77983    0.95713   1.00
H1       0.77970    0.80480    0.97202   1.00
C3b      0.73218    0.71849    0.95922   1.00
C4       0.75003    0.74958    0.97900   1.00
O3       0.68546    0.77982    1.02167   1.00
C5       0.81462    0.81565    0.88720   1.00
H2       0.83321    0.81385    0.91391   1.00
C5       0.82189    0.85448    0.86674   1.00
H2       0.82264    0.79123    0.86726   1.00
H2       0.82416    0.87774    0.88932   1.00
H2       0.79546    0.86127    0.84907   1.00
C5       0.85857    0.85403    0.84082   1.00
H2       0.88410    0.84421    0.85824   1.00
C5       0.86709    0.89502    0.82453   1.00
H2       0.85472    0.83435    0.81507   1.00
C5       0.65372    0.83252    0.99017   1.00
H2       0.62995    0.83543    1.01215   1.00
H2       0.64471    0.80908    0.96952   1.00
C5       0.65982    0.87112    0.96800   1.00
C5       0.62052    0.88611    0.95225   1.00
H2       0.90359    0.64217    1.19286   1.00
H2       0.88453    0.59201    1.18447   1.00
H2       0.90578    0.62023    1.14323   1.00
H2       0.56827    0.62111    1.03105   1.00
H2       0.60525    0.59062    1.00551   1.00
H2       0.61748    0.61409    1.05293   1.00
H2       0.87969    0.89237    0.79387   1.00
H2       0.83888    0.91259    0.82344   1.00
H2       0.88900    0.91044    0.84423   1.00
H2       0.59727    0.86268    0.95634   1.00
H2       0.61166    0.91354    0.96884   1.00
H2       0.62352    0.89322    0.91990   1.00
C5       0.67279    1.13218    0.85056   1.00
H2       0.70007    1.14745    0.85904   1.00
H2       0.66681    1.11090    0.87427   1.00
C5       0.63928    1.16194    0.84741   1.00
C5       0.62232    1.17123    0.88796   1.00
H2       0.61566    1.15015    0.82849   1.00
O3       0.68729    0.98000    0.71710   1.00
C4       0.75042    1.02100    0.74997   1.00
C3c      0.73480    1.04243    0.78121   1.00
H1       0.72253    1.02725    0.80599   1.00
C3d      0.76677    1.04135    0.71821   1.00
C3       0.73421    1.08354    0.78081   1.00
O2       0.72286    1.10248    0.81435   1.00
C3       0.76555    1.08227    0.71739   1.00
H1       0.77719    1.09657    0.69179   1.00
C2       0.74948    1.10439    0.74854   1.00
C5       0.68884    0.97879    0.67594   1.00
H2       0.68749    0.94838    0.66448   1.00
H2       0.71613    0.99266    0.66483   1.00
C5       0.65372    1.00129    0.66047   1.00
H2       0.65447    1.03137    0.67280   1.00
H2       0.62665    0.98698    0.67144   1.00
C5       0.65391    1.00262    0.61556   1.00
H2       0.65344    0.97268    0.60305   1.00
H2       0.68026    1.01811    0.60461   1.00
C5       0.61757    1.02445    0.60067   1.00
C5       0.81925    1.01105    0.69069   1.00
C5       0.68245    1.11070    0.81281   1.00
H2       0.82276    0.99088    0.71587   1.00
H2       0.83816    1.03712    0.69549   1.00
H2       0.66544    1.08300    0.81091   1.00
H2       0.67438    1.12895    0.78697   1.00
H2       0.64976    1.19030    0.83514   1.00
H2       0.86707    0.94247    0.67965   1.00
H2       0.89386    0.98763    0.67212   1.00
C2       0.74909    0.89605    0.74748   1.00
C3       0.78005    0.91597    0.76596   1.00
O2       0.81435    0.89674    0.77459   1.00
C3       0.71802    0.91826    0.73177   1.00
H1       0.69340    0.90385    0.71834   1.00
C3a      0.77983    0.95713    0.76744   1.00
H1       0.80480    0.97202    0.77970   1.00
C3b      0.71849    0.95922    0.73218   1.00
C4       0.74958    0.97900    0.75003   1.00
O3       0.77982    1.02167    0.68546   1.00
C5       0.81565    0.88720    0.81462   1.00
H2       0.81385    0.91391    0.83321   1.00
C5       0.85448    0.86674    0.82189   1.00
H2       0.79123    0.86726    0.82264   1.00
H2       0.87774    0.88932    0.82416   1.00
H2       0.86127    0.84907    0.79546   1.00
C5       0.85403    0.84082    0.85857   1.00
H2       0.84421    0.85824    0.88410   1.00
C5       0.89502    0.82453    0.86709   1.00
H2       0.83435    0.81507    0.85472   1.00
C5       0.83252    0.99017    0.65372   1.00
H2       0.83543    1.01215    0.62995   1.00
H2       0.80908    0.96952    0.64471   1.00
C5       0.87112    0.96800    0.65982   1.00
C5       0.88611    0.95225    0.62052   1.00
H2       0.64217    1.19286    0.90359   1.00
H2       0.59201    1.18447    0.88453   1.00
H2       0.62023    1.14323    0.90578   1.00
H2       0.62111    1.03105    0.56827   1.00
H2       0.59062    1.00551    0.60525   1.00
H2       0.61409    1.05293    0.61748   1.00
H2       0.89237    0.79387    0.87969   1.00
H2       0.91259    0.82344    0.83888   1.00
H2       0.91044    0.84423    0.88900   1.00
H2       0.86268    0.95634    0.59727   1.00
H2       0.91354    0.96884    0.61166   1.00
H2       0.89322    0.91990    0.62352   1.00
C5       0.36782    0.85056    0.82721   1.00
H2       0.35255    0.85904    0.79993   1.00
H2       0.38910    0.87427    0.83319   1.00
C5       0.33806    0.84741    0.86072   1.00
C5       0.32877    0.88796    0.87768   1.00
H2       0.34985    0.82849    0.88434   1.00
O3       0.52000    0.71710    0.81271   1.00
C4       0.47900    0.74997    0.74958   1.00
C3c      0.45757    0.78121    0.76520   1.00
H1       0.47275    0.80599    0.77747   1.00
C3d      0.45865    0.71821    0.73323   1.00
C3       0.41646    0.78081    0.76579   1.00
O2       0.39752    0.81435    0.77714   1.00
C3       0.41773    0.71739    0.73445   1.00
H1       0.40343    0.69179    0.72281   1.00
C2       0.39561    0.74854    0.75052   1.00
C5       0.52121    0.67594    0.81116   1.00
H2       0.55162    0.66448    0.81251   1.00
H2       0.50734    0.66483    0.78387   1.00
C5       0.49871    0.66047    0.84628   1.00
H2       0.46863    0.67280    0.84553   1.00
H2       0.51302    0.67144    0.87335   1.00
C5       0.49738    0.61556    0.84609   1.00
H2       0.52732    0.60305    0.84656   1.00
H2       0.48189    0.60461    0.81974   1.00
C5       0.47555    0.60067    0.88243   1.00
C5       0.48895    0.69069    0.68075   1.00
C5       0.38930    0.81281    0.81755   1.00
H2       0.50912    0.71587    0.67724   1.00
H2       0.46288    0.69549    0.66184   1.00
H2       0.41700    0.81091    0.83456   1.00
H2       0.37105    0.78697    0.82562   1.00
H2       0.30970    0.83514    0.85024   1.00
H2       0.55753    0.67965    0.63293   1.00
H2       0.51237    0.67212    0.60614   1.00
C2       0.60395    0.74748    0.75091   1.00
C3       0.58403    0.76596    0.71995   1.00
O2       0.60326    0.77459    0.68565   1.00
C3       0.58174    0.73177    0.78198   1.00
H1       0.59615    0.71834    0.80660   1.00
C3a      0.54287    0.76744    0.72017   1.00
H1       0.52798    0.77970    0.69520   1.00
C3b      0.54078    0.73218    0.78151   1.00
C4       0.52100    0.75003    0.75042   1.00
O3       0.47833    0.68546    0.72018   1.00
C5       0.61280    0.81462    0.68435   1.00
H2       0.58609    0.83321    0.68615   1.00
C5       0.63326    0.82189    0.64552   1.00
H2       0.63274    0.82264    0.70877   1.00
H2       0.61068    0.82416    0.62226   1.00
H2       0.65093    0.79546    0.63873   1.00
C5       0.65918    0.85857    0.64597   1.00
H2       0.64176    0.88410    0.65579   1.00
C5       0.67547    0.86709    0.60498   1.00
H2       0.68493    0.85472    0.66565   1.00
C5       0.50983    0.65372    0.66748   1.00
H2       0.48785    0.62995    0.66457   1.00
H2       0.53048    0.64471    0.69092   1.00
C5       0.53200    0.65982    0.62888   1.00
C5       0.54775    0.62052    0.61389   1.00
H2       0.30714    0.90359    0.85783   1.00
H2       0.31553    0.88453    0.90799   1.00
H2       0.35677    0.90578    0.87977   1.00
H2       0.46895    0.56827    0.87889   1.00
H2       0.49449    0.60525    0.90938   1.00
H2       0.44707    0.61748    0.88591   1.00
H2       0.70613    0.87969    0.60763   1.00
H2       0.67656    0.83888    0.58741   1.00
H2       0.65577    0.88900    0.58956   1.00
H2       0.54366    0.59727    0.63732   1.00
H2       0.53116    0.61166    0.58646   1.00
H2       0.58010    0.62352    0.60678   1.00
C5       1.13218    0.85056    0.67279   1.00
H2       1.14745    0.85904    0.70007   1.00
H2       1.11090    0.87427    0.66681   1.00
C5       1.16194    0.84741    0.63928   1.00
C5       1.17123    0.88796    0.62232   1.00
H2       1.15015    0.82849    0.61566   1.00
O3       0.98000    0.71710    0.68729   1.00
C4       1.02100    0.74997    0.75042   1.00
C3c      1.04243    0.78121    0.73480   1.00
H1       1.02725    0.80599    0.72253   1.00
C3d      1.04135    0.71821    0.76677   1.00
C3       1.08354    0.78081    0.73421   1.00
O2       1.10248    0.81435    0.72286   1.00
C3       1.08227    0.71739    0.76555   1.00
H1       1.09657    0.69179    0.77719   1.00
C2       1.10439    0.74854    0.74948   1.00
C5       0.97879    0.67594    0.68884   1.00
H2       0.94838    0.66448    0.68749   1.00
H2       0.99266    0.66483    0.71613   1.00
C5       1.00129    0.66047    0.65372   1.00
H2       1.03137    0.67280    0.65447   1.00
H2       0.98698    0.67144    0.62665   1.00
C5       1.00262    0.61556    0.65391   1.00
H2       0.97268    0.60305    0.65344   1.00
H2       1.01811    0.60461    0.68026   1.00
C5       1.02445    0.60067    0.61757   1.00
C5       1.01105    0.69069    0.81925   1.00
C5       1.11070    0.81281    0.68245   1.00
H2       0.99088    0.71587    0.82276   1.00
H2       1.03712    0.69549    0.83816   1.00
H2       1.08300    0.81091    0.66544   1.00
H2       1.12895    0.78697    0.67438   1.00
H2       1.19030    0.83514    0.64976   1.00
H2       0.94247    0.67965    0.86707   1.00
H2       0.98763    0.67212    0.89386   1.00
C2       0.89605    0.74748    0.74909   1.00
C3       0.91597    0.76596    0.78005   1.00
O2       0.89674    0.77459    0.81435   1.00
C3       0.91826    0.73177    0.71802   1.00
H1       0.90385    0.71834    0.69340   1.00
C3a      0.95713    0.76744    0.77983   1.00
H1       0.97202    0.77970    0.80480   1.00
C3b      0.95922    0.73218    0.71849   1.00
C4       0.97900    0.75003    0.74958   1.00
O3       1.02167    0.68546    0.77982   1.00
C5       0.88720    0.81462    0.81565   1.00
H2       0.91391    0.83321    0.81385   1.00
C5       0.86674    0.82189    0.85448   1.00
H2       0.86726    0.82264    0.79123   1.00
H2       0.88932    0.82416    0.87774   1.00
H2       0.84907    0.79546    0.86127   1.00
C5       0.84082    0.85857    0.85403   1.00
H2       0.85824    0.88410    0.84421   1.00
C5       0.82453    0.86709    0.89502   1.00
H2       0.81507    0.85472    0.83435   1.00
C5       0.99017    0.65372    0.83252   1.00
H2       1.01215    0.62995    0.83543   1.00
H2       0.96952    0.64471    0.80908   1.00
C5       0.96800    0.65982    0.87112   1.00
C5       0.95225    0.62052    0.88611   1.00
H2       1.19286    0.90359    0.64217   1.00
H2       1.18447    0.88453    0.59201   1.00
H2       1.14323    0.90578    0.62023   1.00
H2       1.03105    0.56827    0.62111   1.00
H2       1.00551    0.60525    0.59062   1.00
H2       1.05293    0.61748    0.61409   1.00
H2       0.79387    0.87969    0.89237   1.00
H2       0.82344    0.83888    0.91259   1.00
H2       0.84423    0.88900    0.91044   1.00
H2       0.95634    0.59727    0.86268   1.00
H2       0.96884    0.61166    0.91354   1.00
H2       0.91990    0.62352    0.89322   1.00
C5       0.82721    0.36782    0.85056   1.00
H2       0.79993    0.35255    0.85904   1.00
H2       0.83319    0.38910    0.87427   1.00
C5       0.86072    0.33806    0.84741   1.00
C5       0.87768    0.32877    0.88796   1.00
H2       0.88434    0.34985    0.82849   1.00
O3       0.81271    0.52000    0.71710   1.00
C4       0.74958    0.47900    0.74997   1.00
C3c      0.76520    0.45757    0.78121   1.00
H1       0.77747    0.47275    0.80599   1.00
C3d      0.73323    0.45865    0.71821   1.00
C3       0.76579    0.41646    0.78081   1.00
O2       0.77714    0.39752    0.81435   1.00
C3       0.73445    0.41773    0.71739   1.00
H1       0.72281    0.40343    0.69179   1.00
C2       0.75052    0.39561    0.74854   1.00
C5       0.81116    0.52121    0.67594   1.00
H2       0.81251    0.55162    0.66448   1.00
H2       0.78387    0.50734    0.66483   1.00
C5       0.84628    0.49871    0.66047   1.00
H2       0.84553    0.46863    0.67280   1.00
H2       0.87335    0.51302    0.67144   1.00
C5       0.84609    0.49738    0.61556   1.00
H2       0.84656    0.52732    0.60305   1.00
H2       0.81974    0.48189    0.60461   1.00
C5       0.88243    0.47555    0.60067   1.00
C5       0.68075    0.48895    0.69069   1.00
C5       0.81755    0.38930    0.81281   1.00
H2       0.67724    0.50912    0.71587   1.00
H2       0.66184    0.46288    0.69549   1.00
H2       0.83456    0.41700    0.81091   1.00
H2       0.82562    0.37105    0.78697   1.00
H2       0.85024    0.30970    0.83514   1.00
H2       0.63293    0.55753    0.67965   1.00
H2       0.60614    0.51237    0.67212   1.00
C2       0.75091    0.60395    0.74748   1.00
C3       0.71995    0.58403    0.76596   1.00
O2       0.68565    0.60326    0.77459   1.00
C3       0.78198    0.58174    0.73177   1.00
H1       0.80660    0.59615    0.71834   1.00
C3a      0.72017    0.54287    0.76744   1.00
H1       0.69520    0.52798    0.77970   1.00
C3b      0.78151    0.54078    0.73218   1.00
C4       0.75042    0.52100    0.75003   1.00
O3       0.72018    0.47833    0.68546   1.00
C5       0.68435    0.61280    0.81462   1.00
H2       0.68615    0.58609    0.83321   1.00
C5       0.64552    0.63326    0.82189   1.00
H2       0.70877    0.63274    0.82264   1.00
H2       0.62226    0.61068    0.82416   1.00
H2       0.63873    0.65093    0.79546   1.00
C5       0.64597    0.65918    0.85857   1.00
H2       0.65579    0.64176    0.88410   1.00
C5       0.60498    0.67547    0.86709   1.00
H2       0.66565    0.68493    0.85472   1.00
C5       0.66748    0.50983    0.65372   1.00
H2       0.66457    0.48785    0.62995   1.00
H2       0.69092    0.53048    0.64471   1.00
C5       0.62888    0.53200    0.65982   1.00
C5       0.61389    0.54775    0.62052   1.00
H2       0.85783    0.30714    0.90359   1.00
H2       0.90799    0.31553    0.88453   1.00
H2       0.87977    0.35677    0.90578   1.00
H2       0.87889    0.46895    0.56827   1.00
H2       0.90938    0.49449    0.60525   1.00
H2       0.88591    0.44707    0.61748   1.00
H2       0.60763    0.70613    0.87969   1.00
H2       0.58741    0.67656    0.83888   1.00
H2       0.58956    0.65577    0.88900   1.00
H2       0.63732    0.54366    0.59727   1.00
H2       0.58646    0.53116    0.61166   1.00
H2       0.60678    0.58010    0.62352   1.00
C5       0.85056    0.82721    0.36782   1.00
H2       0.85904    0.79993    0.35255   1.00
H2       0.87427    0.83319    0.38910   1.00
C5       0.84741    0.86072    0.33806   1.00
C5       0.88796    0.87768    0.32877   1.00
H2       0.82849    0.88434    0.34985   1.00
O3       0.71710    0.81271    0.52000   1.00
C4       0.74997    0.74958    0.47900   1.00
C3c      0.78121    0.76520    0.45757   1.00
H1       0.80599    0.77747    0.47275   1.00
C3d      0.71821    0.73323    0.45865   1.00
C3       0.78081    0.76579    0.41646   1.00
O2       0.81435    0.77714    0.39752   1.00
C3       0.71739    0.73445    0.41773   1.00
H1       0.69179    0.72281    0.40343   1.00
C2       0.74854    0.75052    0.39561   1.00
C5       0.67594    0.81116    0.52121   1.00
H2       0.66448    0.81251    0.55162   1.00
H2       0.66483    0.78387    0.50734   1.00
C5       0.66047    0.84628    0.49871   1.00
H2       0.67280    0.84553    0.46863   1.00
H2       0.67144    0.87335    0.51302   1.00
C5       0.61556    0.84609    0.49738   1.00
H2       0.60305    0.84656    0.52732   1.00
H2       0.60461    0.81974    0.48189   1.00
C5       0.60067    0.88243    0.47555   1.00
C5       0.69069    0.68075    0.48895   1.00
C5       0.81281    0.81755    0.38930   1.00
H2       0.71587    0.67724    0.50912   1.00
H2       0.69549    0.66184    0.46288   1.00
H2       0.81091    0.83456    0.41700   1.00
H2       0.78697    0.82562    0.37105   1.00
H2       0.83514    0.85024    0.30970   1.00
H2       0.67965    0.63293    0.55753   1.00
H2       0.67212    0.60614    0.51237   1.00
C2       0.74748    0.75091    0.60395   1.00
C3       0.76596    0.71995    0.58403   1.00
O2       0.77459    0.68565    0.60326   1.00
C3       0.73177    0.78198    0.58174   1.00
H1       0.71834    0.80660    0.59615   1.00
C3a      0.76744    0.72017    0.54287   1.00
H1       0.77970    0.69520    0.52798   1.00
C3b      0.73218    0.78151    0.54078   1.00
C4       0.75003    0.75042    0.52100   1.00
O3       0.68546    0.72018    0.47833   1.00
C5       0.81462    0.68435    0.61280   1.00
H2       0.83321    0.68615    0.58609   1.00
C5       0.82189    0.64552    0.63326   1.00
H2       0.82264    0.70877    0.63274   1.00
H2       0.82416    0.62226    0.61068   1.00
H2       0.79546    0.63873    0.65093   1.00
C5       0.85857    0.64597    0.65918   1.00
H2       0.88410    0.65579    0.64176   1.00
C5       0.86709    0.60498    0.67547   1.00
H2       0.85472    0.66565    0.68493   1.00
C5       0.65372    0.66748    0.50983   1.00
H2       0.62995    0.66457    0.48785   1.00
H2       0.64471    0.69092    0.53048   1.00
C5       0.65982    0.62888    0.53200   1.00
C5       0.62052    0.61389    0.54775   1.00
H2       0.90359    0.85783    0.30714   1.00
H2       0.88453    0.90799    0.31553   1.00
H2       0.90578    0.87977    0.35677   1.00
H2       0.56827    0.87889    0.46895   1.00
H2       0.60525    0.90938    0.49449   1.00
H2       0.61748    0.88591    0.44707   1.00
H2       0.87969    0.60763    0.70613   1.00
H2       0.83888    0.58741    0.67656   1.00
H2       0.88900    0.58956    0.65577   1.00
H2       0.59727    0.63732    0.54366   1.00
H2       0.61166    0.58646    0.53116   1.00
H2       0.62352    0.60678    0.58010   1.00
C5       0.35056    0.17279    1.13218   1.00
H2       0.35904    0.20007    1.14745   1.00
H2       0.37427    0.16681    1.11090   1.00
C5       0.34741    0.13928    1.16194   1.00
C5       0.38796    0.12232    1.17123   1.00
H2       0.32849    0.11566    1.15015   1.00
O3       0.21710    0.18729    0.98000   1.00
C4       0.24997    0.25042    1.02100   1.00
C3c      0.28121    0.23480    1.04243   1.00
H1       0.30599    0.22253    1.02725   1.00
C3d      0.21821    0.26677    1.04135   1.00
C3       0.28081    0.23421    1.08354   1.00
O2       0.31435    0.22286    1.10248   1.00
C3       0.21739    0.26555    1.08227   1.00
H1       0.19179    0.27719    1.09657   1.00
C2       0.24854    0.24948    1.10439   1.00
C5       0.17594    0.18884    0.97879   1.00
H2       0.16448    0.18749    0.94838   1.00
H2       0.16483    0.21613    0.99266   1.00
C5       0.16047    0.15372    1.00129   1.00
H2       0.17280    0.15447    1.03137   1.00
H2       0.17144    0.12665    0.98698   1.00
C5       0.11556    0.15391    1.00262   1.00
H2       0.10305    0.15344    0.97268   1.00
H2       0.10461    0.18026    1.01811   1.00
C5       0.10067    0.11757    1.02445   1.00
C5       0.19069    0.31925    1.01105   1.00
C5       0.31281    0.18245    1.11070   1.00
H2       0.21587    0.32276    0.99088   1.00
H2       0.19549    0.33816    1.03712   1.00
H2       0.31091    0.16544    1.08300   1.00
H2       0.28697    0.17438    1.12895   1.00
H2       0.33514    0.14976    1.19030   1.00
H2       0.17965    0.36707    0.94247   1.00
H2       0.17212    0.39386    0.98763   1.00
C2       0.24748    0.24909    0.89605   1.00
C3       0.26596    0.28005    0.91597   1.00
O2       0.27459    0.31435    0.89674   1.00
C3       0.23177    0.21802    0.91826   1.00
H1       0.21834    0.19340    0.90385   1.00
C3a      0.26744    0.27983    0.95713   1.00
H1       0.27970    0.30480    0.97202   1.00
C3b      0.23218    0.21849    0.95922   1.00
C4       0.25003    0.24958    0.97900   1.00
O3       0.18546    0.27982    1.02167   1.00
C5       0.31462    0.31565    0.88720   1.00
H2       0.33321    0.31385    0.91391   1.00
C5       0.32189    0.35448    0.86674   1.00
H2       0.32264    0.29123    0.86726   1.00
H2       0.32416    0.37774    0.88932   1.00
H2       0.29546    0.36127    0.84907   1.00
C5       0.35857    0.35403    0.84082   1.00
H2       0.38410    0.34421    0.85824   1.00
C5       0.36709    0.39502    0.82453   1.00
H2       0.35472    0.33435    0.81507   1.00
C5       0.15372    0.33252    0.99017   1.00
H2       0.12995    0.33543    1.01215   1.00
H2       0.14471    0.30908    0.96952   1.00
C5       0.15982    0.37112    0.96800   1.00
C5       0.12052    0.38611    0.95225   1.00
H2       0.40359    0.14217    1.19286   1.00
H2       0.38453    0.09201    1.18447   1.00
H2       0.40578    0.12023    1.14323   1.00
H2       0.06827    0.12111    1.03105   1.00
H2       0.10525    0.09062    1.00551   1.00
H2       0.11748    0.11409    1.05293   1.00
H2       0.37969    0.39237    0.79387   1.00
H2       0.33888    0.41259    0.82344   1.00
H2       0.38900    0.41044    0.84423   1.00
H2       0.09727    0.36268    0.95634   1.00
H2       0.11166    0.41354    0.96884   1.00
H2       0.12352    0.39322    0.91990   1.00
C5       0.17279    0.63218    0.85056   1.00
H2       0.20007    0.64745    0.85904   1.00
H2       0.16681    0.61090    0.87427   1.00
C5       0.13928    0.66194    0.84741   1.00
C5       0.12232    0.67123    0.88796   1.00
H2       0.11566    0.65015    0.82849   1.00
O3       0.18729    0.48000    0.71710   1.00
C4       0.25042    0.52100    0.74997   1.00
C3c      0.23480    0.54243    0.78121   1.00
H1       0.22253    0.52725    0.80599   1.00
C3d      0.26677    0.54135    0.71821   1.00
C3       0.23421    0.58354    0.78081   1.00
O2       0.22286    0.60248    0.81435   1.00
C3       0.26555    0.58227    0.71739   1.00
H1       0.27719    0.59657    0.69179   1.00
C2       0.24948    0.60439    0.74854   1.00
C5       0.18884    0.47879    0.67594   1.00
H2       0.18749    0.44838    0.66448   1.00
H2       0.21613    0.49266    0.66483   1.00
C5       0.15372    0.50129    0.66047   1.00
H2       0.15447    0.53137    0.67280   1.00
H2       0.12665    0.48698    0.67144   1.00
C5       0.15391    0.50262    0.61556   1.00
H2       0.15344    0.47268    0.60305   1.00
H2       0.18026    0.51811    0.60461   1.00
C5       0.11757    0.52445    0.60067   1.00
C5       0.31925    0.51105    0.69069   1.00
C5       0.18245    0.61070    0.81281   1.00
H2       0.32276    0.49088    0.71587   1.00
H2       0.33816    0.53712    0.69549   1.00
H2       0.16544    0.58300    0.81091   1.00
H2       0.17438    0.62895    0.78697   1.00
H2       0.14976    0.69030    0.83514   1.00
H2       0.36707    0.44247    0.67965   1.00
H2       0.39386    0.48763    0.67212   1.00
C2       0.24909    0.39605    0.74748   1.00
C3       0.28005    0.41597    0.76596   1.00
O2       0.31435    0.39674    0.77459   1.00
C3       0.21802    0.41826    0.73177   1.00
H1       0.19340    0.40385    0.71834   1.00
C3a      0.27983    0.45713    0.76744   1.00
H1       0.30480    0.47202    0.77970   1.00
C3b      0.21849    0.45922    0.73218   1.00
C4       0.24958    0.47900    0.75003   1.00
O3       0.27982    0.52167    0.68546   1.00
C5       0.31565    0.38720    0.81462   1.00
H2       0.31385    0.41391    0.83321   1.00
C5       0.35448    0.36674    0.82189   1.00
H2       0.29123    0.36726    0.82264   1.00
H2       0.37774    0.38932    0.82416   1.00
H2       0.36127    0.34907    0.79546   1.00
C5       0.35403    0.34082    0.85857   1.00
H2       0.34421    0.35824    0.88410   1.00
C5       0.39502    0.32453    0.86709   1.00
H2       0.33435    0.31507    0.85472   1.00
C5       0.33252    0.49017    0.65372   1.00
H2       0.33543    0.51215    0.62995   1.00
H2       0.30908    0.46952    0.64471   1.00
C5       0.37112    0.46800    0.65982   1.00
C5       0.38611    0.45225    0.62052   1.00
H2       0.14217    0.69286    0.90359   1.00
H2       0.09201    0.68447    0.88453   1.00
H2       0.12023    0.64323    0.90578   1.00
H2       0.12111    0.53105    0.56827   1.00
H2       0.09062    0.50551    0.60525   1.00
H2       0.11409    0.55293    0.61748   1.00
H2       0.39237    0.29387    0.87969   1.00
H2       0.41259    0.32344    0.83888   1.00
H2       0.41044    0.34423    0.88900   1.00
H2       0.36268    0.45634    0.59727   1.00
H2       0.41354    0.46884    0.61166   1.00
H2       0.39322    0.41990    0.62352   1.00
C5       -0.13218   0.35056    0.82721   1.00
H2       -0.14745   0.35904    0.79993   1.00
H2       -0.11090   0.37427    0.83319   1.00
C5       -0.16194   0.34741    0.86072   1.00
C5       -0.17123   0.38796    0.87768   1.00
H2       -0.15015   0.32849    0.88434   1.00
O3       0.02000    0.21710    0.81271   1.00
C4       -0.02100   0.24997    0.74958   1.00
C3c      -0.04243   0.28121    0.76520   1.00
H1       -0.02725   0.30599    0.77747   1.00
C3d      -0.04135   0.21821    0.73323   1.00
C3       -0.08354   0.28081    0.76579   1.00
O2       -0.10248   0.31435    0.77714   1.00
C3       -0.08227   0.21739    0.73445   1.00
H1       -0.09657   0.19179    0.72281   1.00
C2       -0.10439   0.24854    0.75052   1.00
C5       0.02121    0.17594    0.81116   1.00
H2       0.05162    0.16448    0.81251   1.00
H2       0.00734    0.16483    0.78387   1.00
C5       -0.00129   0.16047    0.84628   1.00
H2       -0.03137   0.17280    0.84553   1.00
H2       0.01302    0.17144    0.87335   1.00
C5       -0.00262   0.11556    0.84609   1.00
H2       0.02732    0.10305    0.84656   1.00
H2       -0.01811   0.10461    0.81974   1.00
C5       -0.02445   0.10067    0.88243   1.00
C5       -0.01105   0.19069    0.68075   1.00
C5       -0.11070   0.31281    0.81755   1.00
H2       0.00912    0.21587    0.67724   1.00
H2       -0.03712   0.19549    0.66184   1.00
H2       -0.08300   0.31091    0.83456   1.00
H2       -0.12895   0.28697    0.82562   1.00
H2       -0.19030   0.33514    0.85024   1.00
H2       0.05753    0.17965    0.63293   1.00
H2       0.01237    0.17212    0.60614   1.00
C2       0.10395    0.24748    0.75091   1.00
C3       0.08403    0.26596    0.71995   1.00
O2       0.10326    0.27459    0.68565   1.00
C3       0.08174    0.23177    0.78198   1.00
H1       0.09615    0.21834    0.80660   1.00
C3a      0.04287    0.26744    0.72017   1.00
H1       0.02798    0.27970    0.69520   1.00
C3b      0.04078    0.23218    0.78151   1.00
C4       0.02100    0.25003    0.75042   1.00
O3       -0.02167   0.18546    0.72018   1.00
C5       0.11280    0.31462    0.68435   1.00
H2       0.08609    0.33321    0.68615   1.00
C5       0.13326    0.32189    0.64552   1.00
H2       0.13274    0.32264    0.70877   1.00
H2       0.11068    0.32416    0.62226   1.00
H2       0.15093    0.29546    0.63873   1.00
C5       0.15918    0.35857    0.64597   1.00
H2       0.14176    0.38410    0.65579   1.00
C5       0.17547    0.36709    0.60498   1.00
H2       0.18493    0.35472    0.66565   1.00
C5       0.00983    0.15372    0.66748   1.00
H2       -0.01215   0.12995    0.66457   1.00
H2       0.03048    0.14471    0.69092   1.00
C5       0.03200    0.15982    0.62888   1.00
C5       0.04775    0.12052    0.61389   1.00
H2       -0.19286   0.40359    0.85783   1.00
H2       -0.18447   0.38453    0.90799   1.00
H2       -0.14323   0.40578    0.87977   1.00
H2       -0.03105   0.06827    0.87889   1.00
H2       -0.00551   0.10525    0.90938   1.00
H2       -0.05293   0.11748    0.88591   1.00
H2       0.20613    0.37969    0.60763   1.00
H2       0.17656    0.33888    0.58741   1.00
H2       0.15577    0.38900    0.58956   1.00
H2       0.04366    0.09727    0.63732   1.00
H2       0.03116    0.11166    0.58646   1.00
H2       0.08010    0.12352    0.60678   1.00
C5       0.63218    0.35056    0.67279   1.00
H2       0.64745    0.35904    0.70007   1.00
H2       0.61090    0.37427    0.66681   1.00
C5       0.66194    0.34741    0.63928   1.00
C5       0.67123    0.38796    0.62232   1.00
H2       0.65015    0.32849    0.61566   1.00
O3       0.48000    0.21710    0.68729   1.00
C4       0.52100    0.24997    0.75042   1.00
C3c      0.54243    0.28121    0.73480   1.00
H1       0.52725    0.30599    0.72253   1.00
C3d      0.54135    0.21821    0.76677   1.00
C3       0.58354    0.28081    0.73421   1.00
O2       0.60248    0.31435    0.72286   1.00
C3       0.58227    0.21739    0.76555   1.00
H1       0.59657    0.19179    0.77719   1.00
C2       0.60439    0.24854    0.74948   1.00
C5       0.47879    0.17594    0.68884   1.00
H2       0.44838    0.16448    0.68749   1.00
H2       0.49266    0.16483    0.71613   1.00
C5       0.50129    0.16047    0.65372   1.00
H2       0.53137    0.17280    0.65447   1.00
H2       0.48698    0.17144    0.62665   1.00
C5       0.50262    0.11556    0.65391   1.00
H2       0.47268    0.10305    0.65344   1.00
H2       0.51811    0.10461    0.68026   1.00
C5       0.52445    0.10067    0.61757   1.00
C5       0.51105    0.19069    0.81925   1.00
C5       0.61070    0.31281    0.68245   1.00
H2       0.49088    0.21587    0.82276   1.00
H2       0.53712    0.19549    0.83816   1.00
H2       0.58300    0.31091    0.66544   1.00
H2       0.62895    0.28697    0.67438   1.00
H2       0.69030    0.33514    0.64976   1.00
H2       0.44247    0.17965    0.86707   1.00
H2       0.48763    0.17212    0.89386   1.00
C2       0.39605    0.24748    0.74909   1.00
C3       0.41597    0.26596    0.78005   1.00
O2       0.39674    0.27459    0.81435   1.00
C3       0.41826    0.23177    0.71802   1.00
H1       0.40385    0.21834    0.69340   1.00
C3a      0.45713    0.26744    0.77983   1.00
H1       0.47202    0.27970    0.80480   1.00
C3b      0.45922    0.23218    0.71849   1.00
C4       0.47900    0.25003    0.74958   1.00
O3       0.52167    0.18546    0.77982   1.00
C5       0.38720    0.31462    0.81565   1.00
H2       0.41391    0.33321    0.81385   1.00
C5       0.36674    0.32189    0.85448   1.00
H2       0.36726    0.32264    0.79123   1.00
H2       0.38932    0.32416    0.87774   1.00
H2       0.34907    0.29546    0.86127   1.00
C5       0.34082    0.35857    0.85403   1.00
H2       0.35824    0.38410    0.84421   1.00
C5       0.32453    0.36709    0.89502   1.00
H2       0.31507    0.35472    0.83435   1.00
C5       0.49017    0.15372    0.83252   1.00
H2       0.51215    0.12995    0.83543   1.00
H2       0.46952    0.14471    0.80908   1.00
C5       0.46800    0.15982    0.87112   1.00
C5       0.45225    0.12052    0.88611   1.00
H2       0.69286    0.40359    0.64217   1.00
H2       0.68447    0.38453    0.59201   1.00
H2       0.64323    0.40578    0.62023   1.00
H2       0.53105    0.06827    0.62111   1.00
H2       0.50551    0.10525    0.59062   1.00
H2       0.55293    0.11748    0.61409   1.00
H2       0.29387    0.37969    0.89237   1.00
H2       0.32344    0.33888    0.91259   1.00
H2       0.34423    0.38900    0.91044   1.00
H2       0.45634    0.09727    0.86268   1.00
H2       0.46884    0.11166    0.91354   1.00
H2       0.41990    0.12352    0.89322   1.00
C5       0.32721    -0.13218   0.85056   1.00
H2       0.29993    -0.14745   0.85904   1.00
H2       0.33319    -0.11090   0.87427   1.00
C5       0.36072    -0.16194   0.84741   1.00
C5       0.37768    -0.17123   0.88796   1.00
H2       0.38434    -0.15015   0.82849   1.00
O3       0.31271    0.02000    0.71710   1.00
C4       0.24958    -0.02100   0.74997   1.00
C3c      0.26520    -0.04243   0.78121   1.00
H1       0.27747    -0.02725   0.80599   1.00
C3d      0.23323    -0.04135   0.71821   1.00
C3       0.26579    -0.08354   0.78081   1.00
O2       0.27714    -0.10248   0.81435   1.00
C3       0.23445    -0.08227   0.71739   1.00
H1       0.22281    -0.09657   0.69179   1.00
C2       0.25052    -0.10439   0.74854   1.00
C5       0.31116    0.02121    0.67594   1.00
H2       0.31251    0.05162    0.66448   1.00
H2       0.28387    0.00734    0.66483   1.00
C5       0.34628    -0.00129   0.66047   1.00
H2       0.34553    -0.03137   0.67280   1.00
H2       0.37335    0.01302    0.67144   1.00
C5       0.34609    -0.00262   0.61556   1.00
H2       0.34656    0.02732    0.60305   1.00
H2       0.31974    -0.01811   0.60461   1.00
C5       0.38243    -0.02445   0.60067   1.00
C5       0.18075    -0.01105   0.69069   1.00
C5       0.31755    -0.11070   0.81281   1.00
H2       0.17724    0.00912    0.71587   1.00
H2       0.16184    -0.03712   0.69549   1.00
H2       0.33456    -0.08300   0.81091   1.00
H2       0.32562    -0.12895   0.78697   1.00
H2       0.35024    -0.19030   0.83514   1.00
H2       0.13293    0.05753    0.67965   1.00
H2       0.10614    0.01237    0.67212   1.00
C2       0.25091    0.10395    0.74748   1.00
C3       0.21995    0.08403    0.76596   1.00
O2       0.18565    0.10326    0.77459   1.00
C3       0.28198    0.08174    0.73177   1.00
H1       0.30660    0.09615    0.71834   1.00
C3a      0.22017    0.04287    0.76744   1.00
H1       0.19520    0.02798    0.77970   1.00
C3b      0.28151    0.04078    0.73218   1.00
C4       0.25042    0.02100    0.75003   1.00
O3       0.22018    -0.02167   0.68546   1.00
C5       0.18435    0.11280    0.81462   1.00
H2       0.18615    0.08609    0.83321   1.00
C5       0.14552    0.13326    0.82189   1.00
H2       0.20877    0.13274    0.82264   1.00
H2       0.12226    0.11068    0.82416   1.00
H2       0.13873    0.15093    0.79546   1.00
C5       0.14597    0.15918    0.85857   1.00
H2       0.15579    0.14176    0.88410   1.00
C5       0.10498    0.17547    0.86709   1.00
H2       0.16565    0.18493    0.85472   1.00
C5       0.16748    0.00983    0.65372   1.00
H2       0.16457    -0.01215   0.62995   1.00
H2       0.19092    0.03048    0.64471   1.00
C5       0.12888    0.03200    0.65982   1.00
C5       0.11389    0.04775    0.62052   1.00
H2       0.35783    -0.19286   0.90359   1.00
H2       0.40799    -0.18447   0.88453   1.00
H2       0.37977    -0.14323   0.90578   1.00
H2       0.37889    -0.03105   0.56827   1.00
H2       0.40938    -0.00551   0.60525   1.00
H2       0.38591    -0.05293   0.61748   1.00
H2       0.10763    0.20613    0.87969   1.00
H2       0.08741    0.17656    0.83888   1.00
H2       0.08956    0.15577    0.88900   1.00
H2       0.13732    0.04366    0.59727   1.00
H2       0.08646    0.03116    0.61166   1.00
H2       0.10678    0.08010    0.62352   1.00
C5       0.35056    0.32721    0.36782   1.00
H2       0.35904    0.29993    0.35255   1.00
H2       0.37427    0.33319    0.38910   1.00
C5       0.34741    0.36072    0.33806   1.00
C5       0.38796    0.37768    0.32877   1.00
H2       0.32849    0.38434    0.34985   1.00
O3       0.21710    0.31271    0.52000   1.00
C4       0.24997    0.24958    0.47900   1.00
C3c      0.28121    0.26520    0.45757   1.00
H1       0.30599    0.27747    0.47275   1.00
C3d      0.21821    0.23323    0.45865   1.00
C3       0.28081    0.26579    0.41646   1.00
O2       0.31435    0.27714    0.39752   1.00
C3       0.21739    0.23445    0.41773   1.00
H1       0.19179    0.22281    0.40343   1.00
C2       0.24854    0.25052    0.39561   1.00
C5       0.17594    0.31116    0.52121   1.00
H2       0.16448    0.31251    0.55162   1.00
H2       0.16483    0.28387    0.50734   1.00
C5       0.16047    0.34628    0.49871   1.00
H2       0.17280    0.34553    0.46863   1.00
H2       0.17144    0.37335    0.51302   1.00
C5       0.11556    0.34609    0.49738   1.00
H2       0.10305    0.34656    0.52732   1.00
H2       0.10461    0.31974    0.48189   1.00
C5       0.10067    0.38243    0.47555   1.00
C5       0.19069    0.18075    0.48895   1.00
C5       0.31281    0.31755    0.38930   1.00
H2       0.21587    0.17724    0.50912   1.00
H2       0.19549    0.16184    0.46288   1.00
H2       0.31091    0.33456    0.41700   1.00
H2       0.28697    0.32562    0.37105   1.00
H2       0.33514    0.35024    0.30970   1.00
H2       0.17965    0.13293    0.55753   1.00
H2       0.17212    0.10614    0.51237   1.00
C2       0.24748    0.25091    0.60395   1.00
C3       0.26596    0.21995    0.58403   1.00
O2       0.27459    0.18565    0.60326   1.00
C3       0.23177    0.28198    0.58174   1.00
H1       0.21834    0.30660    0.59615   1.00
C3a      0.26744    0.22017    0.54287   1.00
H1       0.27970    0.19520    0.52798   1.00
C3b      0.23218    0.28151    0.54078   1.00
C4       0.25003    0.25042    0.52100   1.00
O3       0.18546    0.22018    0.47833   1.00
C5       0.31462    0.18435    0.61280   1.00
H2       0.33321    0.18615    0.58609   1.00
C5       0.32189    0.14552    0.63326   1.00
H2       0.32264    0.20877    0.63274   1.00
H2       0.32416    0.12226    0.61068   1.00
H2       0.29546    0.13873    0.65093   1.00
C5       0.35857    0.14597    0.65918   1.00
H2       0.38410    0.15579    0.64176   1.00
C5       0.36709    0.10498    0.67547   1.00
H2       0.35472    0.16565    0.68493   1.00
C5       0.15372    0.16748    0.50983   1.00
H2       0.12995    0.16457    0.48785   1.00
H2       0.14471    0.19092    0.53048   1.00
C5       0.15982    0.12888    0.53200   1.00
C5       0.12052    0.11389    0.54775   1.00
H2       0.40359    0.35783    0.30714   1.00
H2       0.38453    0.40799    0.31553   1.00
H2       0.40578    0.37977    0.35677   1.00
H2       0.06827    0.37889    0.46895   1.00
H2       0.10525    0.40938    0.49449   1.00
H2       0.11748    0.38591    0.44707   1.00
H2       0.37969    0.10763    0.70613   1.00
H2       0.33888    0.08741    0.67656   1.00
H2       0.38900    0.08956    0.65577   1.00
H2       0.09727    0.13732    0.54366   1.00
H2       0.11166    0.08646    0.53116   1.00
H2       0.12352    0.10678    0.58010   1.00
C5       0.35056    0.67279    0.63218   1.00
H2       0.35904    0.70007    0.64745   1.00
H2       0.37427    0.66681    0.61090   1.00
C5       0.34741    0.63928    0.66194   1.00
C5       0.38796    0.62232    0.67123   1.00
H2       0.32849    0.61566    0.65015   1.00
O3       0.21710    0.68729    0.48000   1.00
C4       0.24997    0.75042    0.52100   1.00
C3c      0.28121    0.73480    0.54243   1.00
H1       0.30599    0.72253    0.52725   1.00
C3d      0.21821    0.76677    0.54135   1.00
C3       0.28081    0.73421    0.58354   1.00
O2       0.31435    0.72286    0.60248   1.00
C3       0.21739    0.76555    0.58227   1.00
H1       0.19179    0.77719    0.59657   1.00
C2       0.24854    0.74948    0.60439   1.00
C5       0.17594    0.68884    0.47879   1.00
H2       0.16448    0.68749    0.44838   1.00
H2       0.16483    0.71613    0.49266   1.00
C5       0.16047    0.65372    0.50129   1.00
H2       0.17280    0.65447    0.53137   1.00
H2       0.17144    0.62665    0.48698   1.00
C5       0.11556    0.65391    0.50262   1.00
H2       0.10305    0.65344    0.47268   1.00
H2       0.10461    0.68026    0.51811   1.00
C5       0.10067    0.61757    0.52445   1.00
C5       0.19069    0.81925    0.51105   1.00
C5       0.31281    0.68245    0.61070   1.00
H2       0.21587    0.82276    0.49088   1.00
H2       0.19549    0.83816    0.53712   1.00
H2       0.31091    0.66544    0.58300   1.00
H2       0.28697    0.67438    0.62895   1.00
H2       0.33514    0.64976    0.69030   1.00
H2       0.17965    0.86707    0.44247   1.00
H2       0.17212    0.89386    0.48763   1.00
C2       0.24748    0.74909    0.39605   1.00
C3       0.26596    0.78005    0.41597   1.00
O2       0.27459    0.81435    0.39674   1.00
C3       0.23177    0.71802    0.41826   1.00
H1       0.21834    0.69340    0.40385   1.00
C3a      0.26744    0.77983    0.45713   1.00
H1       0.27970    0.80480    0.47202   1.00
C3b      0.23218    0.71849    0.45922   1.00
C4       0.25003    0.74958    0.47900   1.00
O3       0.18546    0.77982    0.52167   1.00
C5       0.31462    0.81565    0.38720   1.00
H2       0.33321    0.81385    0.41391   1.00
C5       0.32189    0.85448    0.36674   1.00
H2       0.32264    0.79123    0.36726   1.00
H2       0.32416    0.87774    0.38932   1.00
H2       0.29546    0.86127    0.34907   1.00
C5       0.35857    0.85403    0.34082   1.00
H2       0.38410    0.84421    0.35824   1.00
C5       0.36709    0.89502    0.32453   1.00
H2       0.35472    0.83435    0.31507   1.00
C5       0.15372    0.83252    0.49017   1.00
H2       0.12995    0.83543    0.51215   1.00
H2       0.14471    0.80908    0.46952   1.00
C5       0.15982    0.87112    0.46800   1.00
C5       0.12052    0.88611    0.45225   1.00
H2       0.40359    0.64217    0.69286   1.00
H2       0.38453    0.59201    0.68447   1.00
H2       0.40578    0.62023    0.64323   1.00
H2       0.06827    0.62111    0.53105   1.00
H2       0.10525    0.59062    0.50551   1.00
H2       0.11748    0.61409    0.55293   1.00
H2       0.37969    0.89237    0.29387   1.00
H2       0.33888    0.91259    0.32344   1.00
H2       0.38900    0.91044    0.34423   1.00
H2       0.09727    0.86268    0.45634   1.00
H2       0.11166    0.91354    0.46884   1.00
H2       0.12352    0.89322    0.41990   1.00
C5       0.17279    1.13218    0.35056   1.00
H2       0.20007    1.14745    0.35904   1.00
H2       0.16681    1.11090    0.37427   1.00
C5       0.13928    1.16194    0.34741   1.00
C5       0.12232    1.17123    0.38796   1.00
H2       0.11566    1.15015    0.32849   1.00
O3       0.18729    0.98000    0.21710   1.00
C4       0.25042    1.02100    0.24997   1.00
C3c      0.23480    1.04243    0.28121   1.00
H1       0.22253    1.02725    0.30599   1.00
C3d      0.26677    1.04135    0.21821   1.00
C3       0.23421    1.08354    0.28081   1.00
O2       0.22286    1.10248    0.31435   1.00
C3       0.26555    1.08227    0.21739   1.00
H1       0.27719    1.09657    0.19179   1.00
C2       0.24948    1.10439    0.24854   1.00
C5       0.18884    0.97879    0.17594   1.00
H2       0.18749    0.94838    0.16448   1.00
H2       0.21613    0.99266    0.16483   1.00
C5       0.15372    1.00129    0.16047   1.00
H2       0.15447    1.03137    0.17280   1.00
H2       0.12665    0.98698    0.17144   1.00
C5       0.15391    1.00262    0.11556   1.00
H2       0.15344    0.97268    0.10305   1.00
H2       0.18026    1.01811    0.10461   1.00
C5       0.11757    1.02445    0.10067   1.00
C5       0.31925    1.01105    0.19069   1.00
C5       0.18245    1.11070    0.31281   1.00
H2       0.32276    0.99088    0.21587   1.00
H2       0.33816    1.03712    0.19549   1.00
H2       0.16544    1.08300    0.31091   1.00
H2       0.17438    1.12895    0.28697   1.00
H2       0.14976    1.19030    0.33514   1.00
H2       0.36707    0.94247    0.17965   1.00
H2       0.39386    0.98763    0.17212   1.00
C2       0.24909    0.89605    0.24748   1.00
C3       0.28005    0.91597    0.26596   1.00
O2       0.31435    0.89674    0.27459   1.00
C3       0.21802    0.91826    0.23177   1.00
H1       0.19340    0.90385    0.21834   1.00
C3a      0.27983    0.95713    0.26744   1.00
H1       0.30480    0.97202    0.27970   1.00
C3b      0.21849    0.95922    0.23218   1.00
C4       0.24958    0.97900    0.25003   1.00
O3       0.27982    1.02167    0.18546   1.00
C5       0.31565    0.88720    0.31462   1.00
H2       0.31385    0.91391    0.33321   1.00
C5       0.35448    0.86674    0.32189   1.00
H2       0.29123    0.86726    0.32264   1.00
H2       0.37774    0.88932    0.32416   1.00
H2       0.36127    0.84907    0.29546   1.00
C5       0.35403    0.84082    0.35857   1.00
H2       0.34421    0.85824    0.38410   1.00
C5       0.39502    0.82453    0.36709   1.00
H2       0.33435    0.81507    0.35472   1.00
C5       0.33252    0.99017    0.15372   1.00
H2       0.33543    1.01215    0.12995   1.00
H2       0.30908    0.96952    0.14471   1.00
C5       0.37112    0.96800    0.15982   1.00
C5       0.38611    0.95225    0.12052   1.00
H2       0.14217    1.19286    0.40359   1.00
H2       0.09201    1.18447    0.38453   1.00
H2       0.12023    1.14323    0.40578   1.00
H2       0.12111    1.03105    0.06827   1.00
H2       0.09062    1.00551    0.10525   1.00
H2       0.11409    1.05293    0.11748   1.00
H2       0.39237    0.79387    0.37969   1.00
H2       0.41259    0.82344    0.33888   1.00
H2       0.41044    0.84423    0.38900   1.00
H2       0.36268    0.95634    0.09727   1.00
H2       0.41354    0.96884    0.11166   1.00
H2       0.39322    0.91990    0.12352   1.00
C5       -0.13218   0.85056    0.32721   1.00
H2       -0.14745   0.85904    0.29993   1.00
H2       -0.11090   0.87427    0.33319   1.00
C5       -0.16194   0.84741    0.36072   1.00
C5       -0.17123   0.88796    0.37768   1.00
H2       -0.15015   0.82849    0.38434   1.00
O3       0.02000    0.71710    0.31271   1.00
C4       -0.02100   0.74997    0.24958   1.00
C3c      -0.04243   0.78121    0.26520   1.00
H1       -0.02725   0.80599    0.27747   1.00
C3d      -0.04135   0.71821    0.23323   1.00
C3       -0.08354   0.78081    0.26579   1.00
O2       -0.10248   0.81435    0.27714   1.00
C3       -0.08227   0.71739    0.23445   1.00
H1       -0.09657   0.69179    0.22281   1.00
C2       -0.10439   0.74854    0.25052   1.00
C5       0.02121    0.67594    0.31116   1.00
H2       0.05162    0.66448    0.31251   1.00
H2       0.00734    0.66483    0.28387   1.00
C5       -0.00129   0.66047    0.34628   1.00
H2       -0.03137   0.67280    0.34553   1.00
H2       0.01302    0.67144    0.37335   1.00
C5       -0.00262   0.61556    0.34609   1.00
H2       0.02732    0.60305    0.34656   1.00
H2       -0.01811   0.60461    0.31974   1.00
C5       -0.02445   0.60067    0.38243   1.00
C5       -0.01105   0.69069    0.18075   1.00
C5       -0.11070   0.81281    0.31755   1.00
H2       0.00912    0.71587    0.17724   1.00
H2       -0.03712   0.69549    0.16184   1.00
H2       -0.08300   0.81091    0.33456   1.00
H2       -0.12895   0.78697    0.32562   1.00
H2       -0.19030   0.83514    0.35024   1.00
H2       0.05753    0.67965    0.13293   1.00
H2       0.01237    0.67212    0.10614   1.00
C2       0.10395    0.74748    0.25091   1.00
C3       0.08403    0.76596    0.21995   1.00
O2       0.10326    0.77459    0.18565   1.00
C3       0.08174    0.73177    0.28198   1.00
H1       0.09615    0.71834    0.30660   1.00
C3a      0.04287    0.76744    0.22017   1.00
H1       0.02798    0.77970    0.19520   1.00
C3b      0.04078    0.73218    0.28151   1.00
C4       0.02100    0.75003    0.25042   1.00
O3       -0.02167   0.68546    0.22018   1.00
C5       0.11280    0.81462    0.18435   1.00
H2       0.08609    0.83321    0.18615   1.00
C5       0.13326    0.82189    0.14552   1.00
H2       0.13274    0.82264    0.20877   1.00
H2       0.11068    0.82416    0.12226   1.00
H2       0.15093    0.79546    0.13873   1.00
C5       0.15918    0.85857    0.14597   1.00
H2       0.14176    0.88410    0.15579   1.00
C5       0.17547    0.86709    0.10498   1.00
H2       0.18493    0.85472    0.16565   1.00
C5       0.00983    0.65372    0.16748   1.00
H2       -0.01215   0.62995    0.16457   1.00
H2       0.03048    0.64471    0.19092   1.00
C5       0.03200    0.65982    0.12888   1.00
C5       0.04775    0.62052    0.11389   1.00
H2       -0.19286   0.90359    0.35783   1.00
H2       -0.18447   0.88453    0.40799   1.00
H2       -0.14323   0.90578    0.37977   1.00
H2       -0.03105   0.56827    0.37889   1.00
H2       -0.00551   0.60525    0.40938   1.00
H2       -0.05293   0.61748    0.38591   1.00
H2       0.20613    0.87969    0.10763   1.00
H2       0.17656    0.83888    0.08741   1.00
H2       0.15577    0.88900    0.08956   1.00
H2       0.04366    0.59727    0.13732   1.00
H2       0.03116    0.61166    0.08646   1.00
H2       0.08010    0.62352    0.10678   1.00
C5       0.63218    0.85056    0.17279   1.00
H2       0.64745    0.85904    0.20007   1.00
H2       0.61090    0.87427    0.16681   1.00
C5       0.66194    0.84741    0.13928   1.00
C5       0.67123    0.88796    0.12232   1.00
H2       0.65015    0.82849    0.11566   1.00
O3       0.48000    0.71710    0.18729   1.00
C4       0.52100    0.74997    0.25042   1.00
C3c      0.54243    0.78121    0.23480   1.00
H1       0.52725    0.80599    0.22253   1.00
C3d      0.54135    0.71821    0.26677   1.00
C3       0.58354    0.78081    0.23421   1.00
O2       0.60248    0.81435    0.22286   1.00
C3       0.58227    0.71739    0.26555   1.00
H1       0.59657    0.69179    0.27719   1.00
C2       0.60439    0.74854    0.24948   1.00
C5       0.47879    0.67594    0.18884   1.00
H2       0.44838    0.66448    0.18749   1.00
H2       0.49266    0.66483    0.21613   1.00
C5       0.50129    0.66047    0.15372   1.00
H2       0.53137    0.67280    0.15447   1.00
H2       0.48698    0.67144    0.12665   1.00
C5       0.50262    0.61556    0.15391   1.00
H2       0.47268    0.60305    0.15344   1.00
H2       0.51811    0.60461    0.18026   1.00
C5       0.52445    0.60067    0.11757   1.00
C5       0.51105    0.69069    0.31925   1.00
C5       0.61070    0.81281    0.18245   1.00
H2       0.49088    0.71587    0.32276   1.00
H2       0.53712    0.69549    0.33816   1.00
H2       0.58300    0.81091    0.16544   1.00
H2       0.62895    0.78697    0.17438   1.00
H2       0.69030    0.83514    0.14976   1.00
H2       0.44247    0.67965    0.36707   1.00
H2       0.48763    0.67212    0.39386   1.00
C2       0.39605    0.74748    0.24909   1.00
C3       0.41597    0.76596    0.28005   1.00
O2       0.39674    0.77459    0.31435   1.00
C3       0.41826    0.73177    0.21802   1.00
H1       0.40385    0.71834    0.19340   1.00
C3a      0.45713    0.76744    0.27983   1.00
H1       0.47202    0.77970    0.30480   1.00
C3b      0.45922    0.73218    0.21849   1.00
C4       0.47900    0.75003    0.24958   1.00
O3       0.52167    0.68546    0.27982   1.00
C5       0.38720    0.81462    0.31565   1.00
H2       0.41391    0.83321    0.31385   1.00
C5       0.36674    0.82189    0.35448   1.00
H2       0.36726    0.82264    0.29123   1.00
H2       0.38932    0.82416    0.37774   1.00
H2       0.34907    0.79546    0.36127   1.00
C5       0.34082    0.85857    0.35403   1.00
H2       0.35824    0.88410    0.34421   1.00
C5       0.32453    0.86709    0.39502   1.00
H2       0.31507    0.85472    0.33435   1.00
C5       0.49017    0.65372    0.33252   1.00
H2       0.51215    0.62995    0.33543   1.00
H2       0.46952    0.64471    0.30908   1.00
C5       0.46800    0.65982    0.37112   1.00
C5       0.45225    0.62052    0.38611   1.00
H2       0.69286    0.90359    0.14217   1.00
H2       0.68447    0.88453    0.09201   1.00
H2       0.64323    0.90578    0.12023   1.00
H2       0.53105    0.56827    0.12111   1.00
H2       0.50551    0.60525    0.09062   1.00
H2       0.55293    0.61748    0.11409   1.00
H2       0.29387    0.87969    0.39237   1.00
H2       0.32344    0.83888    0.41259   1.00
H2       0.34423    0.88900    0.41044   1.00
H2       0.45634    0.59727    0.36268   1.00
H2       0.46884    0.61166    0.41354   1.00
H2       0.41990    0.62352    0.39322   1.00
C5       0.32721    0.36782    0.35056   1.00
H2       0.29993    0.35255    0.35904   1.00
H2       0.33319    0.38910    0.37427   1.00
C5       0.36072    0.33806    0.34741   1.00
C5       0.37768    0.32877    0.38796   1.00
H2       0.38434    0.34985    0.32849   1.00
O3       0.31271    0.52000    0.21710   1.00
C4       0.24958    0.47900    0.24997   1.00
C3c      0.26520    0.45757    0.28121   1.00
H1       0.27747    0.47275    0.30599   1.00
C3d      0.23323    0.45865    0.21821   1.00
C3       0.26579    0.41646    0.28081   1.00
O2       0.27714    0.39752    0.31435   1.00
C3       0.23445    0.41773    0.21739   1.00
H1       0.22281    0.40343    0.19179   1.00
C2       0.25052    0.39561    0.24854   1.00
C5       0.31116    0.52121    0.17594   1.00
H2       0.31251    0.55162    0.16448   1.00
H2       0.28387    0.50734    0.16483   1.00
C5       0.34628    0.49871    0.16047   1.00
H2       0.34553    0.46863    0.17280   1.00
H2       0.37335    0.51302    0.17144   1.00
C5       0.34609    0.49738    0.11556   1.00
H2       0.34656    0.52732    0.10305   1.00
H2       0.31974    0.48189    0.10461   1.00
C5       0.38243    0.47555    0.10067   1.00
C5       0.18075    0.48895    0.19069   1.00
C5       0.31755    0.38930    0.31281   1.00
H2       0.17724    0.50912    0.21587   1.00
H2       0.16184    0.46288    0.19549   1.00
H2       0.33456    0.41700    0.31091   1.00
H2       0.32562    0.37105    0.28697   1.00
H2       0.35024    0.30970    0.33514   1.00
H2       0.13293    0.55753    0.17965   1.00
H2       0.10614    0.51237    0.17212   1.00
C2       0.25091    0.60395    0.24748   1.00
C3       0.21995    0.58403    0.26596   1.00
O2       0.18565    0.60326    0.27459   1.00
C3       0.28198    0.58174    0.23177   1.00
H1       0.30660    0.59615    0.21834   1.00
C3a      0.22017    0.54287    0.26744   1.00
H1       0.19520    0.52798    0.27970   1.00
C3b      0.28151    0.54078    0.23218   1.00
C4       0.25042    0.52100    0.25003   1.00
O3       0.22018    0.47833    0.18546   1.00
C5       0.18435    0.61280    0.31462   1.00
H2       0.18615    0.58609    0.33321   1.00
C5       0.14552    0.63326    0.32189   1.00
H2       0.20877    0.63274    0.32264   1.00
H2       0.12226    0.61068    0.32416   1.00
H2       0.13873    0.65093    0.29546   1.00
C5       0.14597    0.65918    0.35857   1.00
H2       0.15579    0.64176    0.38410   1.00
C5       0.10498    0.67547    0.36709   1.00
H2       0.16565    0.68493    0.35472   1.00
C5       0.16748    0.50983    0.15372   1.00
H2       0.16457    0.48785    0.12995   1.00
H2       0.19092    0.53048    0.14471   1.00
C5       0.12888    0.53200    0.15982   1.00
C5       0.11389    0.54775    0.12052   1.00
H2       0.35783    0.30714    0.40359   1.00
H2       0.40799    0.31553    0.38453   1.00
H2       0.37977    0.35677    0.40578   1.00
H2       0.37889    0.46895    0.06827   1.00
H2       0.40938    0.49449    0.10525   1.00
H2       0.38591    0.44707    0.11748   1.00
H2       0.10763    0.70613    0.37969   1.00
H2       0.08741    0.67656    0.33888   1.00
H2       0.08956    0.65577    0.38900   1.00
H2       0.13732    0.54366    0.09727   1.00
H2       0.08646    0.53116    0.11166   1.00
H2       0.10678    0.58010    0.12352   1.00
C5       0.35056    0.82721    -0.13218   1.00
H2       0.35904    0.79993    -0.14745   1.00
H2       0.37427    0.83319    -0.11090   1.00
C5       0.34741    0.86072    -0.16194   1.00
C5       0.38796    0.87768    -0.17123   1.00
H2       0.32849    0.88434    -0.15015   1.00
O3       0.21710    0.81271    0.02000   1.00
C4       0.24997    0.74958    -0.02100   1.00
C3c      0.28121    0.76520    -0.04243   1.00
H1       0.30599    0.77747    -0.02725   1.00
C3d      0.21821    0.73323    -0.04135   1.00
C3       0.28081    0.76579    -0.08354   1.00
O2       0.31435    0.77714    -0.10248   1.00
C3       0.21739    0.73445    -0.08227   1.00
H1       0.19179    0.72281    -0.09657   1.00
C2       0.24854    0.75052    -0.10439   1.00
C5       0.17594    0.81116    0.02121   1.00
H2       0.16448    0.81251    0.05162   1.00
H2       0.16483    0.78387    0.00734   1.00
C5       0.16047    0.84628    -0.00129   1.00
H2       0.17280    0.84553    -0.03137   1.00
H2       0.17144    0.87335    0.01302   1.00
C5       0.11556    0.84609    -0.00262   1.00
H2       0.10305    0.84656    0.02732   1.00
H2       0.10461    0.81974    -0.01811   1.00
C5       0.10067    0.88243    -0.02445   1.00
C5       0.19069    0.68075    -0.01105   1.00
C5       0.31281    0.81755    -0.11070   1.00
H2       0.21587    0.67724    0.00912   1.00
H2       0.19549    0.66184    -0.03712   1.00
H2       0.31091    0.83456    -0.08300   1.00
H2       0.28697    0.82562    -0.12895   1.00
H2       0.33514    0.85024    -0.19030   1.00
H2       0.17965    0.63293    0.05753   1.00
H2       0.17212    0.60614    0.01237   1.00
C2       0.24748    0.75091    0.10395   1.00
C3       0.26596    0.71995    0.08403   1.00
O2       0.27459    0.68565    0.10326   1.00
C3       0.23177    0.78198    0.08174   1.00
H1       0.21834    0.80660    0.09615   1.00
C3a      0.26744    0.72017    0.04287   1.00
H1       0.27970    0.69520    0.02798   1.00
C3b      0.23218    0.78151    0.04078   1.00
C4       0.25003    0.75042    0.02100   1.00
O3       0.18546    0.72018    -0.02167   1.00
C5       0.31462    0.68435    0.11280   1.00
H2       0.33321    0.68615    0.08609   1.00
C5       0.32189    0.64552    0.13326   1.00
H2       0.32264    0.70877    0.13274   1.00
H2       0.32416    0.62226    0.11068   1.00
H2       0.29546    0.63873    0.15093   1.00
C5       0.35857    0.64597    0.15918   1.00
H2       0.38410    0.65579    0.14176   1.00
C5       0.36709    0.60498    0.17547   1.00
H2       0.35472    0.66565    0.18493   1.00
C5       0.15372    0.66748    0.00983   1.00
H2       0.12995    0.66457    -0.01215   1.00
H2       0.14471    0.69092    0.03048   1.00
C5       0.15982    0.62888    0.03200   1.00
C5       0.12052    0.61389    0.04775   1.00
H2       0.40359    0.85783    -0.19286   1.00
H2       0.38453    0.90799    -0.18447   1.00
H2       0.40578    0.87977    -0.14323   1.00
H2       0.06827    0.87889    -0.03105   1.00
H2       0.10525    0.90938    -0.00551   1.00
H2       0.11748    0.88591    -0.05293   1.00
H2       0.37969    0.60763    0.20613   1.00
H2       0.33888    0.58741    0.17656   1.00
H2       0.38900    0.58956    0.15577   1.00
H2       0.09727    0.63732    0.04366   1.00
H2       0.11166    0.58646    0.03116   1.00
H2       0.12352    0.60678    0.08010   1.00
C5       0.85056    0.17279    0.63218   1.00
H2       0.85904    0.20007    0.64745   1.00
H2       0.87427    0.16681    0.61090   1.00
C5       0.84741    0.13928    0.66194   1.00
C5       0.88796    0.12232    0.67123   1.00
H2       0.82849    0.11566    0.65015   1.00
O3       0.71710    0.18729    0.48000   1.00
C4       0.74997    0.25042    0.52100   1.00
C3c      0.78121    0.23480    0.54243   1.00
H1       0.80599    0.22253    0.52725   1.00
C3d      0.71821    0.26677    0.54135   1.00
C3       0.78081    0.23421    0.58354   1.00
O2       0.81435    0.22286    0.60248   1.00
C3       0.71739    0.26555    0.58227   1.00
H1       0.69179    0.27719    0.59657   1.00
C2       0.74854    0.24948    0.60439   1.00
C5       0.67594    0.18884    0.47879   1.00
H2       0.66448    0.18749    0.44838   1.00
H2       0.66483    0.21613    0.49266   1.00
C5       0.66047    0.15372    0.50129   1.00
H2       0.67280    0.15447    0.53137   1.00
H2       0.67144    0.12665    0.48698   1.00
C5       0.61556    0.15391    0.50262   1.00
H2       0.60305    0.15344    0.47268   1.00
H2       0.60461    0.18026    0.51811   1.00
C5       0.60067    0.11757    0.52445   1.00
C5       0.69069    0.31925    0.51105   1.00
C5       0.81281    0.18245    0.61070   1.00
H2       0.71587    0.32276    0.49088   1.00
H2       0.69549    0.33816    0.53712   1.00
H2       0.81091    0.16544    0.58300   1.00
H2       0.78697    0.17438    0.62895   1.00
H2       0.83514    0.14976    0.69030   1.00
H2       0.67965    0.36707    0.44247   1.00
H2       0.67212    0.39386    0.48763   1.00
C2       0.74748    0.24909    0.39605   1.00
C3       0.76596    0.28005    0.41597   1.00
O2       0.77459    0.31435    0.39674   1.00
C3       0.73177    0.21802    0.41826   1.00
H1       0.71834    0.19340    0.40385   1.00
C3a      0.76744    0.27983    0.45713   1.00
H1       0.77970    0.30480    0.47202   1.00
C3b      0.73218    0.21849    0.45922   1.00
C4       0.75003    0.24958    0.47900   1.00
O3       0.68546    0.27982    0.52167   1.00
C5       0.81462    0.31565    0.38720   1.00
H2       0.83321    0.31385    0.41391   1.00
C5       0.82189    0.35448    0.36674   1.00
H2       0.82264    0.29123    0.36726   1.00
H2       0.82416    0.37774    0.38932   1.00
H2       0.79546    0.36127    0.34907   1.00
C5       0.85857    0.35403    0.34082   1.00
H2       0.88410    0.34421    0.35824   1.00
C5       0.86709    0.39502    0.32453   1.00
H2       0.85472    0.33435    0.31507   1.00
C5       0.65372    0.33252    0.49017   1.00
H2       0.62995    0.33543    0.51215   1.00
H2       0.64471    0.30908    0.46952   1.00
C5       0.65982    0.37112    0.46800   1.00
C5       0.62052    0.38611    0.45225   1.00
H2       0.90359    0.14217    0.69286   1.00
H2       0.88453    0.09201    0.68447   1.00
H2       0.90578    0.12023    0.64323   1.00
H2       0.56827    0.12111    0.53105   1.00
H2       0.60525    0.09062    0.50551   1.00
H2       0.61748    0.11409    0.55293   1.00
H2       0.87969    0.39237    0.29387   1.00
H2       0.83888    0.41259    0.32344   1.00
H2       0.88900    0.41044    0.34423   1.00
H2       0.59727    0.36268    0.45634   1.00
H2       0.61166    0.41354    0.46884   1.00
H2       0.62352    0.39322    0.41990   1.00
C5       0.67279    0.63218    0.35056   1.00
H2       0.70007    0.64745    0.35904   1.00
H2       0.66681    0.61090    0.37427   1.00
C5       0.63928    0.66194    0.34741   1.00
C5       0.62232    0.67123    0.38796   1.00
H2       0.61566    0.65015    0.32849   1.00
O3       0.68729    0.48000    0.21710   1.00
C4       0.75042    0.52100    0.24997   1.00
C3c      0.73480    0.54243    0.28121   1.00
H1       0.72253    0.52725    0.30599   1.00
C3d      0.76677    0.54135    0.21821   1.00
C3       0.73421    0.58354    0.28081   1.00
O2       0.72286    0.60248    0.31435   1.00
C3       0.76555    0.58227    0.21739   1.00
H1       0.77719    0.59657    0.19179   1.00
C2       0.74948    0.60439    0.24854   1.00
C5       0.68884    0.47879    0.17594   1.00
H2       0.68749    0.44838    0.16448   1.00
H2       0.71613    0.49266    0.16483   1.00
C5       0.65372    0.50129    0.16047   1.00
H2       0.65447    0.53137    0.17280   1.00
H2       0.62665    0.48698    0.17144   1.00
C5       0.65391    0.50262    0.11556   1.00
H2       0.65344    0.47268    0.10305   1.00
H2       0.68026    0.51811    0.10461   1.00
C5       0.61757    0.52445    0.10067   1.00
C5       0.81925    0.51105    0.19069   1.00
C5       0.68245    0.61070    0.31281   1.00
H2       0.82276    0.49088    0.21587   1.00
H2       0.83816    0.53712    0.19549   1.00
H2       0.66544    0.58300    0.31091   1.00
H2       0.67438    0.62895    0.28697   1.00
H2       0.64976    0.69030    0.33514   1.00
H2       0.86707    0.44247    0.17965   1.00
H2       0.89386    0.48763    0.17212   1.00
C2       0.74909    0.39605    0.24748   1.00
C3       0.78005    0.41597    0.26596   1.00
O2       0.81435    0.39674    0.27459   1.00
C3       0.71802    0.41826    0.23177   1.00
H1       0.69340    0.40385    0.21834   1.00
C3a      0.77983    0.45713    0.26744   1.00
H1       0.80480    0.47202    0.27970   1.00
C3b      0.71849    0.45922    0.23218   1.00
C4       0.74958    0.47900    0.25003   1.00
O3       0.77982    0.52167    0.18546   1.00
C5       0.81565    0.38720    0.31462   1.00
H2       0.81385    0.41391    0.33321   1.00
C5       0.85448    0.36674    0.32189   1.00
H2       0.79123    0.36726    0.32264   1.00
H2       0.87774    0.38932    0.32416   1.00
H2       0.86127    0.34907    0.29546   1.00
C5       0.85403    0.34082    0.35857   1.00
H2       0.84421    0.35824    0.38410   1.00
C5       0.89502    0.32453    0.36709   1.00
H2       0.83435    0.31507    0.35472   1.00
C5       0.83252    0.49017    0.15372   1.00
H2       0.83543    0.51215    0.12995   1.00
H2       0.80908    0.46952    0.14471   1.00
C5       0.87112    0.46800    0.15982   1.00
C5       0.88611    0.45225    0.12052   1.00
H2       0.64217    0.69286    0.40359   1.00
H2       0.59201    0.68447    0.38453   1.00
H2       0.62023    0.64323    0.40578   1.00
H2       0.62111    0.53105    0.06827   1.00
H2       0.59062    0.50551    0.10525   1.00
H2       0.61409    0.55293    0.11748   1.00
H2       0.89237    0.29387    0.37969   1.00
H2       0.91259    0.32344    0.33888   1.00
H2       0.91044    0.34423    0.38900   1.00
H2       0.86268    0.45634    0.09727   1.00
H2       0.91354    0.46884    0.11166   1.00
H2       0.89322    0.41990    0.12352   1.00
C5       0.36782    0.35056    0.32721   1.00
H2       0.35255    0.35904    0.29993   1.00
H2       0.38910    0.37427    0.33319   1.00
C5       0.33806    0.34741    0.36072   1.00
C5       0.32877    0.38796    0.37768   1.00
H2       0.34985    0.32849    0.38434   1.00
O3       0.52000    0.21710    0.31271   1.00
C4       0.47900    0.24997    0.24958   1.00
C3c      0.45757    0.28121    0.26520   1.00
H1       0.47275    0.30599    0.27747   1.00
C3d      0.45865    0.21821    0.23323   1.00
C3       0.41646    0.28081    0.26579   1.00
O2       0.39752    0.31435    0.27714   1.00
C3       0.41773    0.21739    0.23445   1.00
H1       0.40343    0.19179    0.22281   1.00
C2       0.39561    0.24854    0.25052   1.00
C5       0.52121    0.17594    0.31116   1.00
H2       0.55162    0.16448    0.31251   1.00
H2       0.50734    0.16483    0.28387   1.00
C5       0.49871    0.16047    0.34628   1.00
H2       0.46863    0.17280    0.34553   1.00
H2       0.51302    0.17144    0.37335   1.00
C5       0.49738    0.11556    0.34609   1.00
H2       0.52732    0.10305    0.34656   1.00
H2       0.48189    0.10461    0.31974   1.00
C5       0.47555    0.10067    0.38243   1.00
C5       0.48895    0.19069    0.18075   1.00
C5       0.38930    0.31281    0.31755   1.00
H2       0.50912    0.21587    0.17724   1.00
H2       0.46288    0.19549    0.16184   1.00
H2       0.41700    0.31091    0.33456   1.00
H2       0.37105    0.28697    0.32562   1.00
H2       0.30970    0.33514    0.35024   1.00
H2       0.55753    0.17965    0.13293   1.00
H2       0.51237    0.17212    0.10614   1.00
C2       0.60395    0.24748    0.25091   1.00
C3       0.58403    0.26596    0.21995   1.00
O2       0.60326    0.27459    0.18565   1.00
C3       0.58174    0.23177    0.28198   1.00
H1       0.59615    0.21834    0.30660   1.00
C3a      0.54287    0.26744    0.22017   1.00
H1       0.52798    0.27970    0.19520   1.00
C3b      0.54078    0.23218    0.28151   1.00
C4       0.52100    0.25003    0.25042   1.00
O3       0.47833    0.18546    0.22018   1.00
C5       0.61280    0.31462    0.18435   1.00
H2       0.58609    0.33321    0.18615   1.00
C5       0.63326    0.32189    0.14552   1.00
H2       0.63274    0.32264    0.20877   1.00
H2       0.61068    0.32416    0.12226   1.00
H2       0.65093    0.29546    0.13873   1.00
C5       0.65918    0.35857    0.14597   1.00
H2       0.64176    0.38410    0.15579   1.00
C5       0.67547    0.36709    0.10498   1.00
H2       0.68493    0.35472    0.16565   1.00
C5       0.50983    0.15372    0.16748   1.00
H2       0.48785    0.12995    0.16457   1.00
H2       0.53048    0.14471    0.19092   1.00
C5       0.53200    0.15982    0.12888   1.00
C5       0.54775    0.12052    0.11389   1.00
H2       0.30714    0.40359    0.35783   1.00
H2       0.31553    0.38453    0.40799   1.00
H2       0.35677    0.40578    0.37977   1.00
H2       0.46895    0.06827    0.37889   1.00
H2       0.49449    0.10525    0.40938   1.00
H2       0.44707    0.11748    0.38591   1.00
H2       0.70613    0.37969    0.10763   1.00
H2       0.67656    0.33888    0.08741   1.00
H2       0.65577    0.38900    0.08956   1.00
H2       0.54366    0.09727    0.13732   1.00
H2       0.53116    0.11166    0.08646   1.00
H2       0.58010    0.12352    0.10678   1.00
C5       1.13218    0.35056    0.17279   1.00
H2       1.14745    0.35904    0.20007   1.00
H2       1.11090    0.37427    0.16681   1.00
C5       1.16194    0.34741    0.13928   1.00
C5       1.17123    0.38796    0.12232   1.00
H2       1.15015    0.32849    0.11566   1.00
O3       0.98000    0.21710    0.18729   1.00
C4       1.02100    0.24997    0.25042   1.00
C3c      1.04243    0.28121    0.23480   1.00
H1       1.02725    0.30599    0.22253   1.00
C3d      1.04135    0.21821    0.26677   1.00
C3       1.08354    0.28081    0.23421   1.00
O2       1.10248    0.31435    0.22286   1.00
C3       1.08227    0.21739    0.26555   1.00
H1       1.09657    0.19179    0.27719   1.00
C2       1.10439    0.24854    0.24948   1.00
C5       0.97879    0.17594    0.18884   1.00
H2       0.94838    0.16448    0.18749   1.00
H2       0.99266    0.16483    0.21613   1.00
C5       1.00129    0.16047    0.15372   1.00
H2       1.03137    0.17280    0.15447   1.00
H2       0.98698    0.17144    0.12665   1.00
C5       1.00262    0.11556    0.15391   1.00
H2       0.97268    0.10305    0.15344   1.00
H2       1.01811    0.10461    0.18026   1.00
C5       1.02445    0.10067    0.11757   1.00
C5       1.01105    0.19069    0.31925   1.00
C5       1.11070    0.31281    0.18245   1.00
H2       0.99088    0.21587    0.32276   1.00
H2       1.03712    0.19549    0.33816   1.00
H2       1.08300    0.31091    0.16544   1.00
H2       1.12895    0.28697    0.17438   1.00
H2       1.19030    0.33514    0.14976   1.00
H2       0.94247    0.17965    0.36707   1.00
H2       0.98763    0.17212    0.39386   1.00
C2       0.89605    0.24748    0.24909   1.00
C3       0.91597    0.26596    0.28005   1.00
O2       0.89674    0.27459    0.31435   1.00
C3       0.91826    0.23177    0.21802   1.00
H1       0.90385    0.21834    0.19340   1.00
C3a      0.95713    0.26744    0.27983   1.00
H1       0.97202    0.27970    0.30480   1.00
C3b      0.95922    0.23218    0.21849   1.00
C4       0.97900    0.25003    0.24958   1.00
O3       1.02167    0.18546    0.27982   1.00
C5       0.88720    0.31462    0.31565   1.00
H2       0.91391    0.33321    0.31385   1.00
C5       0.86674    0.32189    0.35448   1.00
H2       0.86726    0.32264    0.29123   1.00
H2       0.88932    0.32416    0.37774   1.00
H2       0.84907    0.29546    0.36127   1.00
C5       0.84082    0.35857    0.35403   1.00
H2       0.85824    0.38410    0.34421   1.00
C5       0.82453    0.36709    0.39502   1.00
H2       0.81507    0.35472    0.33435   1.00
C5       0.99017    0.15372    0.33252   1.00
H2       1.01215    0.12995    0.33543   1.00
H2       0.96952    0.14471    0.30908   1.00
C5       0.96800    0.15982    0.37112   1.00
C5       0.95225    0.12052    0.38611   1.00
H2       1.19286    0.40359    0.14217   1.00
H2       1.18447    0.38453    0.09201   1.00
H2       1.14323    0.40578    0.12023   1.00
H2       1.03105    0.06827    0.12111   1.00
H2       1.00551    0.10525    0.09062   1.00
H2       1.05293    0.11748    0.11409   1.00
H2       0.79387    0.37969    0.39237   1.00
H2       0.82344    0.33888    0.41259   1.00
H2       0.84423    0.38900    0.41044   1.00
H2       0.95634    0.09727    0.36268   1.00
H2       0.96884    0.11166    0.41354   1.00
H2       0.91990    0.12352    0.39322   1.00
C5       0.82721    -0.13218   0.35056   1.00
H2       0.79993    -0.14745   0.35904   1.00
H2       0.83319    -0.11090   0.37427   1.00
C5       0.86072    -0.16194   0.34741   1.00
C5       0.87768    -0.17123   0.38796   1.00
H2       0.88434    -0.15015   0.32849   1.00
O3       0.81271    0.02000    0.21710   1.00
C4       0.74958    -0.02100   0.24997   1.00
C3c      0.76520    -0.04243   0.28121   1.00
H1       0.77747    -0.02725   0.30599   1.00
C3d      0.73323    -0.04135   0.21821   1.00
C3       0.76579    -0.08354   0.28081   1.00
O2       0.77714    -0.10248   0.31435   1.00
C3       0.73445    -0.08227   0.21739   1.00
H1       0.72281    -0.09657   0.19179   1.00
C2       0.75052    -0.10439   0.24854   1.00
C5       0.81116    0.02121    0.17594   1.00
H2       0.81251    0.05162    0.16448   1.00
H2       0.78387    0.00734    0.16483   1.00
C5       0.84628    -0.00129   0.16047   1.00
H2       0.84553    -0.03137   0.17280   1.00
H2       0.87335    0.01302    0.17144   1.00
C5       0.84609    -0.00262   0.11556   1.00
H2       0.84656    0.02732    0.10305   1.00
H2       0.81974    -0.01811   0.10461   1.00
C5       0.88243    -0.02445   0.10067   1.00
C5       0.68075    -0.01105   0.19069   1.00
C5       0.81755    -0.11070   0.31281   1.00
H2       0.67724    0.00912    0.21587   1.00
H2       0.66184    -0.03712   0.19549   1.00
H2       0.83456    -0.08300   0.31091   1.00
H2       0.82562    -0.12895   0.28697   1.00
H2       0.85024    -0.19030   0.33514   1.00
H2       0.63293    0.05753    0.17965   1.00
H2       0.60614    0.01237    0.17212   1.00
C2       0.75091    0.10395    0.24748   1.00
C3       0.71995    0.08403    0.26596   1.00
O2       0.68565    0.10326    0.27459   1.00
C3       0.78198    0.08174    0.23177   1.00
H1       0.80660    0.09615    0.21834   1.00
C3a      0.72017    0.04287    0.26744   1.00
H1       0.69520    0.02798    0.27970   1.00
C3b      0.78151    0.04078    0.23218   1.00
C4       0.75042    0.02100    0.25003   1.00
O3       0.72018    -0.02167   0.18546   1.00
C5       0.68435    0.11280    0.31462   1.00
H2       0.68615    0.08609    0.33321   1.00
C5       0.64552    0.13326    0.32189   1.00
H2       0.70877    0.13274    0.32264   1.00
H2       0.62226    0.11068    0.32416   1.00
H2       0.63873    0.15093    0.29546   1.00
C5       0.64597    0.15918    0.35857   1.00
H2       0.65579    0.14176    0.38410   1.00
C5       0.60498    0.17547    0.36709   1.00
H2       0.66565    0.18493    0.35472   1.00
C5       0.66748    0.00983    0.15372   1.00
H2       0.66457    -0.01215   0.12995   1.00
H2       0.69092    0.03048    0.14471   1.00
C5       0.62888    0.03200    0.15982   1.00
C5       0.61389    0.04775    0.12052   1.00
H2       0.85783    -0.19286   0.40359   1.00
H2       0.90799    -0.18447   0.38453   1.00
H2       0.87977    -0.14323   0.40578   1.00
H2       0.87889    -0.03105   0.06827   1.00
H2       0.90938    -0.00551   0.10525   1.00
H2       0.88591    -0.05293   0.11748   1.00
H2       0.60763    0.20613    0.37969   1.00
H2       0.58741    0.17656    0.33888   1.00
H2       0.58956    0.15577    0.38900   1.00
H2       0.63732    0.04366    0.09727   1.00
H2       0.58646    0.03116    0.11166   1.00
H2       0.60678    0.08010    0.12352   1.00
C5       0.85056    0.32721    -0.13218   1.00
H2       0.85904    0.29993    -0.14745   1.00
H2       0.87427    0.33319    -0.11090   1.00
C5       0.84741    0.36072    -0.16194   1.00
C5       0.88796    0.37768    -0.17123   1.00
H2       0.82849    0.38434    -0.15015   1.00
O3       0.71710    0.31271    0.02000   1.00
C4       0.74997    0.24958    -0.02100   1.00
C3c      0.78121    0.26520    -0.04243   1.00
H1       0.80599    0.27747    -0.02725   1.00
C3d      0.71821    0.23323    -0.04135   1.00
C3       0.78081    0.26579    -0.08354   1.00
O2       0.81435    0.27714    -0.10248   1.00
C3       0.71739    0.23445    -0.08227   1.00
H1       0.69179    0.22281    -0.09657   1.00
C2       0.74854    0.25052    -0.10439   1.00
C5       0.67594    0.31116    0.02121   1.00
H2       0.66448    0.31251    0.05162   1.00
H2       0.66483    0.28387    0.00734   1.00
C5       0.66047    0.34628    -0.00129   1.00
H2       0.67280    0.34553    -0.03137   1.00
H2       0.67144    0.37335    0.01302   1.00
C5       0.61556    0.34609    -0.00262   1.00
H2       0.60305    0.34656    0.02732   1.00
H2       0.60461    0.31974    -0.01811   1.00
C5       0.60067    0.38243    -0.02445   1.00
C5       0.69069    0.18075    -0.01105   1.00
C5       0.81281    0.31755    -0.11070   1.00
H2       0.71587    0.17724    0.00912   1.00
H2       0.69549    0.16184    -0.03712   1.00
H2       0.81091    0.33456    -0.08300   1.00
H2       0.78697    0.32562    -0.12895   1.00
H2       0.83514    0.35024    -0.19030   1.00
H2       0.67965    0.13293    0.05753   1.00
H2       0.67212    0.10614    0.01237   1.00
C2       0.74748    0.25091    0.10395   1.00
C3       0.76596    0.21995    0.08403   1.00
O2       0.77459    0.18565    0.10326   1.00
C3       0.73177    0.28198    0.08174   1.00
H1       0.71834    0.30660    0.09615   1.00
C3a      0.76744    0.22017    0.04287   1.00
H1       0.77970    0.19520    0.02798   1.00
C3b      0.73218    0.28151    0.04078   1.00
C4       0.75003    0.25042    0.02100   1.00
O3       0.68546    0.22018    -0.02167   1.00
C5       0.81462    0.18435    0.11280   1.00
H2       0.83321    0.18615    0.08609   1.00
C5       0.82189    0.14552    0.13326   1.00
H2       0.82264    0.20877    0.13274   1.00
H2       0.82416    0.12226    0.11068   1.00
H2       0.79546    0.13873    0.15093   1.00
C5       0.85857    0.14597    0.15918   1.00
H2       0.88410    0.15579    0.14176   1.00
C5       0.86709    0.10498    0.17547   1.00
H2       0.85472    0.16565    0.18493   1.00
C5       0.65372    0.16748    0.00983   1.00
H2       0.62995    0.16457    -0.01215   1.00
H2       0.64471    0.19092    0.03048   1.00
C5       0.65982    0.12888    0.03200   1.00
C5       0.62052    0.11389    0.04775   1.00
H2       0.90359    0.35783    -0.19286   1.00
H2       0.88453    0.40799    -0.18447   1.00
H2       0.90578    0.37977    -0.14323   1.00
H2       0.56827    0.37889    -0.03105   1.00
H2       0.60525    0.40938    -0.00551   1.00
H2       0.61748    0.38591    -0.05293   1.00
H2       0.87969    0.10763    0.20613   1.00
H2       0.83888    0.08741    0.17656   1.00
H2       0.88900    0.08956    0.15577   1.00
H2       0.59727    0.13732    0.04366   1.00
H2       0.61166    0.08646    0.03116   1.00
H2       0.62352    0.10678    0.08010   1.00
C5       1.10056    0.92279    1.38218   1.00
H2       1.10904    0.95007    1.39745   1.00
H2       1.12427    0.91681    1.36090   1.00
C5       1.09741    0.88928    1.41194   1.00
C5       1.13796    0.87232    1.42123   1.00
H2       1.07849    0.86566    1.40015   1.00
O3       0.96710    0.93729    1.23000   1.00
C4       0.99997    1.00042    1.27100   1.00
C3c      1.03121    0.98480    1.29243   1.00
H1       1.05599    0.97253    1.27725   1.00
C3d      0.96821    1.01677    1.29135   1.00
C3       1.03081    0.98421    1.33354   1.00
O2       1.06435    0.97286    1.35248   1.00
C3       0.96739    1.01555    1.33227   1.00
H1       0.94179    1.02719    1.34657   1.00
C2       0.99854    0.99948    1.35439   1.00
C5       0.92594    0.93884    1.22879   1.00
H2       0.91448    0.93749    1.19838   1.00
H2       0.91483    0.96613    1.24266   1.00
C5       0.91047    0.90372    1.25129   1.00
H2       0.92280    0.90447    1.28137   1.00
H2       0.92144    0.87665    1.23698   1.00
C5       0.86556    0.90391    1.25262   1.00
H2       0.85305    0.90344    1.22268   1.00
H2       0.85461    0.93026    1.26811   1.00
C5       0.85067    0.86757    1.27445   1.00
C5       0.94069    1.06925    1.26105   1.00
C5       1.06281    0.93245    1.36070   1.00
H2       0.96587    1.07276    1.24088   1.00
H2       0.94549    1.08816    1.28712   1.00
H2       1.06091    0.91544    1.33300   1.00
H2       1.03697    0.92438    1.37895   1.00
H2       1.08514    0.89976    1.44030   1.00
H2       0.92965    1.11707    1.19247   1.00
H2       0.92212    1.14386    1.23763   1.00
C2       0.99748    0.99909    1.14605   1.00
C3       1.01596    1.03005    1.16597   1.00
O2       1.02459    1.06435    1.14674   1.00
C3       0.98177    0.96802    1.16826   1.00
H1       0.96834    0.94340    1.15385   1.00
C3a      1.01744    1.02983    1.20713   1.00
H1       1.02970    1.05480    1.22202   1.00
C3b      0.98218    0.96849    1.20922   1.00
C4       1.00003    0.99958    1.22900   1.00
O3       0.93546    1.02982    1.27167   1.00
C5       1.06462    1.06565    1.13720   1.00
H2       1.08321    1.06385    1.16391   1.00
C5       1.07189    1.10448    1.11674   1.00
H2       1.07264    1.04123    1.11726   1.00
H2       1.07416    1.12774    1.13932   1.00
H2       1.04546    1.11127    1.09907   1.00
C5       1.10857    1.10403    1.09082   1.00
H2       1.13410    1.09421    1.10824   1.00
C5       1.11709    1.14502    1.07453   1.00
H2       1.10472    1.08435    1.06507   1.00
C5       0.90372    1.08252    1.24017   1.00
H2       0.87995    1.08543    1.26215   1.00
H2       0.89471    1.05908    1.21952   1.00
C5       0.90982    1.12112    1.21800   1.00
C5       0.87052    1.13611    1.20225   1.00
H2       1.15359    0.89217    1.44286   1.00
H2       1.13453    0.84201    1.43447   1.00
H2       1.15578    0.87023    1.39323   1.00
H2       0.81827    0.87111    1.28105   1.00
H2       0.85525    0.84062    1.25551   1.00
H2       0.86748    0.86409    1.30293   1.00
H2       1.12969    1.14237    1.04387   1.00
H2       1.08888    1.16259    1.07344   1.00
H2       1.13900    1.16044    1.09423   1.00
H2       0.84727    1.11268    1.20634   1.00
H2       0.86166    1.16354    1.21884   1.00
H2       0.87352    1.14322    1.16990   1.00
C5       0.92279    1.38218    1.10056   1.00
H2       0.95007    1.39745    1.10904   1.00
H2       0.91681    1.36090    1.12427   1.00
C5       0.88928    1.41194    1.09741   1.00
C5       0.87232    1.42123    1.13796   1.00
H2       0.86566    1.40015    1.07849   1.00
O3       0.93729    1.23000    0.96710   1.00
C4       1.00042    1.27100    0.99997   1.00
C3c      0.98480    1.29243    1.03121   1.00
H1       0.97253    1.27725    1.05599   1.00
C3d      1.01677    1.29135    0.96821   1.00
C3       0.98421    1.33354    1.03081   1.00
O2       0.97286    1.35248    1.06435   1.00
C3       1.01555    1.33227    0.96739   1.00
H1       1.02719    1.34657    0.94179   1.00
C2       0.99948    1.35439    0.99854   1.00
C5       0.93884    1.22879    0.92594   1.00
H2       0.93749    1.19838    0.91448   1.00
H2       0.96613    1.24266    0.91483   1.00
C5       0.90372    1.25129    0.91047   1.00
H2       0.90447    1.28137    0.92280   1.00
H2       0.87665    1.23698    0.92144   1.00
C5       0.90391    1.25262    0.86556   1.00
H2       0.90344    1.22268    0.85305   1.00
H2       0.93026    1.26811    0.85461   1.00
C5       0.86757    1.27445    0.85067   1.00
C5       1.06925    1.26105    0.94069   1.00
C5       0.93245    1.36070    1.06281   1.00
H2       1.07276    1.24088    0.96587   1.00
H2       1.08816    1.28712    0.94549   1.00
H2       0.91544    1.33300    1.06091   1.00
H2       0.92438    1.37895    1.03697   1.00
H2       0.89976    1.44030    1.08514   1.00
H2       1.11707    1.19247    0.92965   1.00
H2       1.14386    1.23763    0.92212   1.00
C2       0.99909    1.14605    0.99748   1.00
C3       1.03005    1.16597    1.01596   1.00
O2       1.06435    1.14674    1.02459   1.00
C3       0.96802    1.16826    0.98177   1.00
H1       0.94340    1.15385    0.96834   1.00
C3a      1.02983    1.20713    1.01744   1.00
H1       1.05480    1.22202    1.02970   1.00
C3b      0.96849    1.20922    0.98218   1.00
C4       0.99958    1.22900    1.00003   1.00
O3       1.02982    1.27167    0.93546   1.00
C5       1.06565    1.13720    1.06462   1.00
H2       1.06385    1.16391    1.08321   1.00
C5       1.10448    1.11674    1.07189   1.00
H2       1.04123    1.11726    1.07264   1.00
H2       1.12774    1.13932    1.07416   1.00
H2       1.11127    1.09907    1.04546   1.00
C5       1.10403    1.09082    1.10857   1.00
H2       1.09421    1.10824    1.13410   1.00
C5       1.14502    1.07453    1.11709   1.00
H2       1.08435    1.06507    1.10472   1.00
C5       1.08252    1.24017    0.90372   1.00
H2       1.08543    1.26215    0.87995   1.00
H2       1.05908    1.21952    0.89471   1.00
C5       1.12112    1.21800    0.90982   1.00
C5       1.13611    1.20225    0.87052   1.00
H2       0.89217    1.44286    1.15359   1.00
H2       0.84201    1.43447    1.13453   1.00
H2       0.87023    1.39323    1.15578   1.00
H2       0.87111    1.28105    0.81827   1.00
H2       0.84062    1.25551    0.85525   1.00
H2       0.86409    1.30293    0.86748   1.00
H2       1.14237    1.04387    1.12969   1.00
H2       1.16259    1.07344    1.08888   1.00
H2       1.16044    1.09423    1.13900   1.00
H2       1.11268    1.20634    0.84727   1.00
H2       1.16354    1.21884    0.86166   1.00
H2       1.14322    1.16990    0.87352   1.00
C5       0.61782    1.10056    1.07721   1.00
H2       0.60255    1.10904    1.04993   1.00
H2       0.63910    1.12427    1.08319   1.00
C5       0.58806    1.09741    1.11072   1.00
C5       0.57877    1.13796    1.12768   1.00
H2       0.59985    1.07849    1.13434   1.00
O3       0.77000    0.96710    1.06271   1.00
C4       0.72900    0.99997    0.99958   1.00
C3c      0.70757    1.03121    1.01520   1.00
H1       0.72275    1.05599    1.02747   1.00
C3d      0.70865    0.96821    0.98323   1.00
C3       0.66646    1.03081    1.01579   1.00
O2       0.64752    1.06435    1.02714   1.00
C3       0.66773    0.96739    0.98445   1.00
H1       0.65343    0.94179    0.97281   1.00
C2       0.64561    0.99854    1.00052   1.00
C5       0.77121    0.92594    1.06116   1.00
H2       0.80162    0.91448    1.06251   1.00
H2       0.75734    0.91483    1.03387   1.00
C5       0.74871    0.91047    1.09628   1.00
H2       0.71863    0.92280    1.09553   1.00
H2       0.76302    0.92144    1.12335   1.00
C5       0.74738    0.86556    1.09609   1.00
H2       0.77732    0.85305    1.09656   1.00
H2       0.73189    0.85461    1.06974   1.00
C5       0.72555    0.85067    1.13243   1.00
C5       0.73895    0.94069    0.93075   1.00
C5       0.63930    1.06281    1.06755   1.00
H2       0.75912    0.96587    0.92724   1.00
H2       0.71288    0.94549    0.91184   1.00
H2       0.66700    1.06091    1.08456   1.00
H2       0.62105    1.03697    1.07562   1.00
H2       0.55970    1.08514    1.10024   1.00
H2       0.80753    0.92965    0.88293   1.00
H2       0.76237    0.92212    0.85614   1.00
C2       0.85395    0.99748    1.00091   1.00
C3       0.83403    1.01596    0.96995   1.00
O2       0.85326    1.02459    0.93565   1.00
C3       0.83174    0.98177    1.03198   1.00
H1       0.84615    0.96834    1.05660   1.00
C3a      0.79287    1.01744    0.97017   1.00
H1       0.77798    1.02970    0.94520   1.00
C3b      0.79078    0.98218    1.03151   1.00
C4       0.77100    1.00003    1.00042   1.00
O3       0.72833    0.93546    0.97018   1.00
C5       0.86280    1.06462    0.93435   1.00
H2       0.83609    1.08321    0.93615   1.00
C5       0.88326    1.07189    0.89552   1.00
H2       0.88274    1.07264    0.95877   1.00
H2       0.86068    1.07416    0.87226   1.00
H2       0.90093    1.04546    0.88873   1.00
C5       0.90918    1.10857    0.89597   1.00
H2       0.89176    1.13410    0.90579   1.00
C5       0.92547    1.11709    0.85498   1.00
H2       0.93493    1.10472    0.91565   1.00
C5       0.75983    0.90372    0.91748   1.00
H2       0.73785    0.87995    0.91457   1.00
H2       0.78048    0.89471    0.94092   1.00
C5       0.78200    0.90982    0.87888   1.00
C5       0.79775    0.87052    0.86389   1.00
H2       0.55714    1.15359    1.10783   1.00
H2       0.56553    1.13453    1.15799   1.00
H2       0.60677    1.15578    1.12977   1.00
H2       0.71895    0.81827    1.12889   1.00
H2       0.74449    0.85525    1.15938   1.00
H2       0.69707    0.86748    1.13591   1.00
H2       0.95613    1.12969    0.85763   1.00
H2       0.92656    1.08888    0.83741   1.00
H2       0.90577    1.13900    0.83956   1.00
H2       0.79366    0.84727    0.88732   1.00
H2       0.78116    0.86166    0.83646   1.00
H2       0.83010    0.87352    0.85678   1.00
C5       1.38218    1.10056    0.92279   1.00
H2       1.39745    1.10904    0.95007   1.00
H2       1.36090    1.12427    0.91681   1.00
C5       1.41194    1.09741    0.88928   1.00
C5       1.42123    1.13796    0.87232   1.00
H2       1.40015    1.07849    0.86566   1.00
O3       1.23000    0.96710    0.93729   1.00
C4       1.27100    0.99997    1.00042   1.00
C3c      1.29243    1.03121    0.98480   1.00
H1       1.27725    1.05599    0.97253   1.00
C3d      1.29135    0.96821    1.01677   1.00
C3       1.33354    1.03081    0.98421   1.00
O2       1.35248    1.06435    0.97286   1.00
C3       1.33227    0.96739    1.01555   1.00
H1       1.34657    0.94179    1.02719   1.00
C2       1.35439    0.99854    0.99948   1.00
C5       1.22879    0.92594    0.93884   1.00
H2       1.19838    0.91448    0.93749   1.00
H2       1.24266    0.91483    0.96613   1.00
C5       1.25129    0.91047    0.90372   1.00
H2       1.28137    0.92280    0.90447   1.00
H2       1.23698    0.92144    0.87665   1.00
C5       1.25262    0.86556    0.90391   1.00
H2       1.22268    0.85305    0.90344   1.00
H2       1.26811    0.85461    0.93026   1.00
C5       1.27445    0.85067    0.86757   1.00
C5       1.26105    0.94069    1.06925   1.00
C5       1.36070    1.06281    0.93245   1.00
H2       1.24088    0.96587    1.07276   1.00
H2       1.28712    0.94549    1.08816   1.00
H2       1.33300    1.06091    0.91544   1.00
H2       1.37895    1.03697    0.92438   1.00
H2       1.44030    1.08514    0.89976   1.00
H2       1.19247    0.92965    1.11707   1.00
H2       1.23763    0.92212    1.14386   1.00
C2       1.14605    0.99748    0.99909   1.00
C3       1.16597    1.01596    1.03005   1.00
O2       1.14674    1.02459    1.06435   1.00
C3       1.16826    0.98177    0.96802   1.00
H1       1.15385    0.96834    0.94340   1.00
C3a      1.20713    1.01744    1.02983   1.00
H1       1.22202    1.02970    1.05480   1.00
C3b      1.20922    0.98218    0.96849   1.00
C4       1.22900    1.00003    0.99958   1.00
O3       1.27167    0.93546    1.02982   1.00
C5       1.13720    1.06462    1.06565   1.00
H2       1.16391    1.08321    1.06385   1.00
C5       1.11674    1.07189    1.10448   1.00
H2       1.11726    1.07264    1.04123   1.00
H2       1.13932    1.07416    1.12774   1.00
H2       1.09907    1.04546    1.11127   1.00
C5       1.09082    1.10857    1.10403   1.00
H2       1.10824    1.13410    1.09421   1.00
C5       1.07453    1.11709    1.14502   1.00
H2       1.06507    1.10472    1.08435   1.00
C5       1.24017    0.90372    1.08252   1.00
H2       1.26215    0.87995    1.08543   1.00
H2       1.21952    0.89471    1.05908   1.00
C5       1.21800    0.90982    1.12112   1.00
C5       1.20225    0.87052    1.13611   1.00
H2       1.44286    1.15359    0.89217   1.00
H2       1.43447    1.13453    0.84201   1.00
H2       1.39323    1.15578    0.87023   1.00
H2       1.28105    0.81827    0.87111   1.00
H2       1.25551    0.85525    0.84062   1.00
H2       1.30293    0.86748    0.86409   1.00
H2       1.04387    1.12969    1.14237   1.00
H2       1.07344    1.08888    1.16259   1.00
H2       1.09423    1.13900    1.16044   1.00
H2       1.20634    0.84727    1.11268   1.00
H2       1.21884    0.86166    1.16354   1.00
H2       1.16990    0.87352    1.14322   1.00
C5       1.07721    0.61782    1.10056   1.00
H2       1.04993    0.60255    1.10904   1.00
H2       1.08319    0.63910    1.12427   1.00
C5       1.11072    0.58806    1.09741   1.00
C5       1.12768    0.57877    1.13796   1.00
H2       1.13434    0.59985    1.07849   1.00
O3       1.06271    0.77000    0.96710   1.00
C4       0.99958    0.72900    0.99997   1.00
C3c      1.01520    0.70757    1.03121   1.00
H1       1.02747    0.72275    1.05599   1.00
C3d      0.98323    0.70865    0.96821   1.00
C3       1.01579    0.66646    1.03081   1.00
O2       1.02714    0.64752    1.06435   1.00
C3       0.98445    0.66773    0.96739   1.00
H1       0.97281    0.65343    0.94179   1.00
C2       1.00052    0.64561    0.99854   1.00
C5       1.06116    0.77121    0.92594   1.00
H2       1.06251    0.80162    0.91448   1.00
H2       1.03387    0.75734    0.91483   1.00
C5       1.09628    0.74871    0.91047   1.00
H2       1.09553    0.71863    0.92280   1.00
H2       1.12335    0.76302    0.92144   1.00
C5       1.09609    0.74738    0.86556   1.00
H2       1.09656    0.77732    0.85305   1.00
H2       1.06974    0.73189    0.85461   1.00
C5       1.13243    0.72555    0.85067   1.00
C5       0.93075    0.73895    0.94069   1.00
C5       1.06755    0.63930    1.06281   1.00
H2       0.92724    0.75912    0.96587   1.00
H2       0.91184    0.71288    0.94549   1.00
H2       1.08456    0.66700    1.06091   1.00
H2       1.07562    0.62105    1.03697   1.00
H2       1.10024    0.55970    1.08514   1.00
H2       0.88293    0.80753    0.92965   1.00
H2       0.85614    0.76237    0.92212   1.00
C2       1.00091    0.85395    0.99748   1.00
C3       0.96995    0.83403    1.01596   1.00
O2       0.93565    0.85326    1.02459   1.00
C3       1.03198    0.83174    0.98177   1.00
H1       1.05660    0.84615    0.96834   1.00
C3a      0.97017    0.79287    1.01744   1.00
H1       0.94520    0.77798    1.02970   1.00
C3b      1.03151    0.79078    0.98218   1.00
C4       1.00042    0.77100    1.00003   1.00
O3       0.97018    0.72833    0.93546   1.00
C5       0.93435    0.86280    1.06462   1.00
H2       0.93615    0.83609    1.08321   1.00
C5       0.89552    0.88326    1.07189   1.00
H2       0.95877    0.88274    1.07264   1.00
H2       0.87226    0.86068    1.07416   1.00
H2       0.88873    0.90093    1.04546   1.00
C5       0.89597    0.90918    1.10857   1.00
H2       0.90579    0.89176    1.13410   1.00
C5       0.85498    0.92547    1.11709   1.00
H2       0.91565    0.93493    1.10472   1.00
C5       0.91748    0.75983    0.90372   1.00
H2       0.91457    0.73785    0.87995   1.00
H2       0.94092    0.78048    0.89471   1.00
C5       0.87888    0.78200    0.90982   1.00
C5       0.86389    0.79775    0.87052   1.00
H2       1.10783    0.55714    1.15359   1.00
H2       1.15799    0.56553    1.13453   1.00
H2       1.12977    0.60677    1.15578   1.00
H2       1.12889    0.71895    0.81827   1.00
H2       1.15938    0.74449    0.85525   1.00
H2       1.13591    0.69707    0.86748   1.00
H2       0.85763    0.95613    1.12969   1.00
H2       0.83741    0.92656    1.08888   1.00
H2       0.83956    0.90577    1.13900   1.00
H2       0.88732    0.79366    0.84727   1.00
H2       0.83646    0.78116    0.86166   1.00
H2       0.85678    0.83010    0.87352   1.00
C5       1.10056    1.07721    0.61782   1.00
H2       1.10904    1.04993    0.60255   1.00
H2       1.12427    1.08319    0.63910   1.00
C5       1.09741    1.11072    0.58806   1.00
C5       1.13796    1.12768    0.57877   1.00
H2       1.07849    1.13434    0.59985   1.00
O3       0.96710    1.06271    0.77000   1.00
C4       0.99997    0.99958    0.72900   1.00
C3c      1.03121    1.01520    0.70757   1.00
H1       1.05599    1.02747    0.72275   1.00
C3d      0.96821    0.98323    0.70865   1.00
C3       1.03081    1.01579    0.66646   1.00
O2       1.06435    1.02714    0.64752   1.00
C3       0.96739    0.98445    0.66773   1.00
H1       0.94179    0.97281    0.65343   1.00
C2       0.99854    1.00052    0.64561   1.00
C5       0.92594    1.06116    0.77121   1.00
H2       0.91448    1.06251    0.80162   1.00
H2       0.91483    1.03387    0.75734   1.00
C5       0.91047    1.09628    0.74871   1.00
H2       0.92280    1.09553    0.71863   1.00
H2       0.92144    1.12335    0.76302   1.00
C5       0.86556    1.09609    0.74738   1.00
H2       0.85305    1.09656    0.77732   1.00
H2       0.85461    1.06974    0.73189   1.00
C5       0.85067    1.13243    0.72555   1.00
C5       0.94069    0.93075    0.73895   1.00
C5       1.06281    1.06755    0.63930   1.00
H2       0.96587    0.92724    0.75912   1.00
H2       0.94549    0.91184    0.71288   1.00
H2       1.06091    1.08456    0.66700   1.00
H2       1.03697    1.07562    0.62105   1.00
H2       1.08514    1.10024    0.55970   1.00
H2       0.92965    0.88293    0.80753   1.00
H2       0.92212    0.85614    0.76237   1.00
C2       0.99748    1.00091    0.85395   1.00
C3       1.01596    0.96995    0.83403   1.00
O2       1.02459    0.93565    0.85326   1.00
C3       0.98177    1.03198    0.83174   1.00
H1       0.96834    1.05660    0.84615   1.00
C3a      1.01744    0.97017    0.79287   1.00
H1       1.02970    0.94520    0.77798   1.00
C3b      0.98218    1.03151    0.79078   1.00
C4       1.00003    1.00042    0.77100   1.00
O3       0.93546    0.97018    0.72833   1.00
C5       1.06462    0.93435    0.86280   1.00
H2       1.08321    0.93615    0.83609   1.00
C5       1.07189    0.89552    0.88326   1.00
H2       1.07264    0.95877    0.88274   1.00
H2       1.07416    0.87226    0.86068   1.00
H2       1.04546    0.88873    0.90093   1.00
C5       1.10857    0.89597    0.90918   1.00
H2       1.13410    0.90579    0.89176   1.00
C5       1.11709    0.85498    0.92547   1.00
H2       1.10472    0.91565    0.93493   1.00
C5       0.90372    0.91748    0.75983   1.00
H2       0.87995    0.91457    0.73785   1.00
H2       0.89471    0.94092    0.78048   1.00
C5       0.90982    0.87888    0.78200   1.00
C5       0.87052    0.86389    0.79775   1.00
H2       1.15359    1.10783    0.55714   1.00
H2       1.13453    1.15799    0.56553   1.00
H2       1.15578    1.12977    0.60677   1.00
H2       0.81827    1.12889    0.71895   1.00
H2       0.85525    1.15938    0.74449   1.00
H2       0.86748    1.13591    0.69707   1.00
H2       1.12969    0.85763    0.95613   1.00
H2       1.08888    0.83741    0.92656   1.00
H2       1.13900    0.83956    0.90577   1.00
H2       0.84727    0.88732    0.79366   1.00
H2       0.86166    0.83646    0.78116   1.00
H2       0.87352    0.85678    0.83010   1.00
C5       0.60056    0.42279    1.38218   1.00
H2       0.60904    0.45007    1.39745   1.00
H2       0.62427    0.41681    1.36090   1.00
C5       0.59741    0.38928    1.41194   1.00
C5       0.63796    0.37232    1.42123   1.00
H2       0.57849    0.36566    1.40015   1.00
O3       0.46710    0.43729    1.23000   1.00
C4       0.49997    0.50042    1.27100   1.00
C3c      0.53121    0.48480    1.29243   1.00
H1       0.55599    0.47253    1.27725   1.00
C3d      0.46821    0.51677    1.29135   1.00
C3       0.53081    0.48421    1.33354   1.00
O2       0.56435    0.47286    1.35248   1.00
C3       0.46739    0.51555    1.33227   1.00
H1       0.44179    0.52719    1.34657   1.00
C2       0.49854    0.49948    1.35439   1.00
C5       0.42594    0.43884    1.22879   1.00
H2       0.41448    0.43749    1.19838   1.00
H2       0.41483    0.46613    1.24266   1.00
C5       0.41047    0.40372    1.25129   1.00
H2       0.42280    0.40447    1.28137   1.00
H2       0.42144    0.37665    1.23698   1.00
C5       0.36556    0.40391    1.25262   1.00
H2       0.35305    0.40344    1.22268   1.00
H2       0.35461    0.43026    1.26811   1.00
C5       0.35067    0.36757    1.27445   1.00
C5       0.44069    0.56925    1.26105   1.00
C5       0.56281    0.43245    1.36070   1.00
H2       0.46587    0.57276    1.24088   1.00
H2       0.44549    0.58816    1.28712   1.00
H2       0.56091    0.41544    1.33300   1.00
H2       0.53697    0.42438    1.37895   1.00
H2       0.58514    0.39976    1.44030   1.00
H2       0.42965    0.61707    1.19247   1.00
H2       0.42212    0.64386    1.23763   1.00
C2       0.49748    0.49909    1.14605   1.00
C3       0.51596    0.53005    1.16597   1.00
O2       0.52459    0.56435    1.14674   1.00
C3       0.48177    0.46802    1.16826   1.00
H1       0.46834    0.44340    1.15385   1.00
C3a      0.51744    0.52983    1.20713   1.00
H1       0.52970    0.55480    1.22202   1.00
C3b      0.48218    0.46849    1.20922   1.00
C4       0.50003    0.49958    1.22900   1.00
O3       0.43546    0.52982    1.27167   1.00
C5       0.56462    0.56565    1.13720   1.00
H2       0.58321    0.56385    1.16391   1.00
C5       0.57189    0.60448    1.11674   1.00
H2       0.57264    0.54123    1.11726   1.00
H2       0.57416    0.62774    1.13932   1.00
H2       0.54546    0.61127    1.09907   1.00
C5       0.60857    0.60403    1.09082   1.00
H2       0.63410    0.59421    1.10824   1.00
C5       0.61709    0.64502    1.07453   1.00
H2       0.60472    0.58435    1.06507   1.00
C5       0.40372    0.58252    1.24017   1.00
H2       0.37995    0.58543    1.26215   1.00
H2       0.39471    0.55908    1.21952   1.00
C5       0.40982    0.62112    1.21800   1.00
C5       0.37052    0.63611    1.20225   1.00
H2       0.65359    0.39217    1.44286   1.00
H2       0.63453    0.34201    1.43447   1.00
H2       0.65578    0.37023    1.39323   1.00
H2       0.31827    0.37111    1.28105   1.00
H2       0.35525    0.34062    1.25551   1.00
H2       0.36748    0.36409    1.30293   1.00
H2       0.62969    0.64237    1.04387   1.00
H2       0.58888    0.66259    1.07344   1.00
H2       0.63900    0.66044    1.09423   1.00
H2       0.34727    0.61268    1.20634   1.00
H2       0.36166    0.66354    1.21884   1.00
H2       0.37352    0.64322    1.16990   1.00
C5       0.42279    0.88218    1.10056   1.00
H2       0.45007    0.89745    1.10904   1.00
H2       0.41681    0.86090    1.12427   1.00
C5       0.38928    0.91194    1.09741   1.00
C5       0.37232    0.92123    1.13796   1.00
H2       0.36566    0.90015    1.07849   1.00
O3       0.43729    0.73000    0.96710   1.00
C4       0.50042    0.77100    0.99997   1.00
C3c      0.48480    0.79243    1.03121   1.00
H1       0.47253    0.77725    1.05599   1.00
C3d      0.51677    0.79135    0.96821   1.00
C3       0.48421    0.83354    1.03081   1.00
O2       0.47286    0.85248    1.06435   1.00
C3       0.51555    0.83227    0.96739   1.00
H1       0.52719    0.84657    0.94179   1.00
C2       0.49948    0.85439    0.99854   1.00
C5       0.43884    0.72879    0.92594   1.00
H2       0.43749    0.69838    0.91448   1.00
H2       0.46613    0.74266    0.91483   1.00
C5       0.40372    0.75129    0.91047   1.00
H2       0.40447    0.78137    0.92280   1.00
H2       0.37665    0.73698    0.92144   1.00
C5       0.40391    0.75262    0.86556   1.00
H2       0.40344    0.72268    0.85305   1.00
H2       0.43026    0.76811    0.85461   1.00
C5       0.36757    0.77445    0.85067   1.00
C5       0.56925    0.76105    0.94069   1.00
C5       0.43245    0.86070    1.06281   1.00
H2       0.57276    0.74088    0.96587   1.00
H2       0.58816    0.78712    0.94549   1.00
H2       0.41544    0.83300    1.06091   1.00
H2       0.42438    0.87895    1.03697   1.00
H2       0.39976    0.94030    1.08514   1.00
H2       0.61707    0.69247    0.92965   1.00
H2       0.64386    0.73763    0.92212   1.00
C2       0.49909    0.64605    0.99748   1.00
C3       0.53005    0.66597    1.01596   1.00
O2       0.56435    0.64674    1.02459   1.00
C3       0.46802    0.66826    0.98177   1.00
H1       0.44340    0.65385    0.96834   1.00
C3a      0.52983    0.70713    1.01744   1.00
H1       0.55480    0.72202    1.02970   1.00
C3b      0.46849    0.70922    0.98218   1.00
C4       0.49958    0.72900    1.00003   1.00
O3       0.52982    0.77167    0.93546   1.00
C5       0.56565    0.63720    1.06462   1.00
H2       0.56385    0.66391    1.08321   1.00
C5       0.60448    0.61674    1.07189   1.00
H2       0.54123    0.61726    1.07264   1.00
H2       0.62774    0.63932    1.07416   1.00
H2       0.61127    0.59907    1.04546   1.00
C5       0.60403    0.59082    1.10857   1.00
H2       0.59421    0.60824    1.13410   1.00
C5       0.64502    0.57453    1.11709   1.00
H2       0.58435    0.56507    1.10472   1.00
C5       0.58252    0.74017    0.90372   1.00
H2       0.58543    0.76215    0.87995   1.00
H2       0.55908    0.71952    0.89471   1.00
C5       0.62112    0.71800    0.90982   1.00
C5       0.63611    0.70225    0.87052   1.00
H2       0.39217    0.94286    1.15359   1.00
H2       0.34201    0.93447    1.13453   1.00
H2       0.37023    0.89323    1.15578   1.00
H2       0.37111    0.78105    0.81827   1.00
H2       0.34062    0.75551    0.85525   1.00
H2       0.36409    0.80293    0.86748   1.00
H2       0.64237    0.54387    1.12969   1.00
H2       0.66259    0.57344    1.08888   1.00
H2       0.66044    0.59423    1.13900   1.00
H2       0.61268    0.70634    0.84727   1.00
H2       0.66354    0.71884    0.86166   1.00
H2       0.64322    0.66990    0.87352   1.00
C5       0.11782    0.60056    1.07721   1.00
H2       0.10255    0.60904    1.04993   1.00
H2       0.13910    0.62427    1.08319   1.00
C5       0.08806    0.59741    1.11072   1.00
C5       0.07877    0.63796    1.12768   1.00
H2       0.09985    0.57849    1.13434   1.00
O3       0.27000    0.46710    1.06271   1.00
C4       0.22900    0.49997    0.99958   1.00
C3c      0.20757    0.53121    1.01520   1.00
H1       0.22275    0.55599    1.02747   1.00
C3d      0.20865    0.46821    0.98323   1.00
C3       0.16646    0.53081    1.01579   1.00
O2       0.14752    0.56435    1.02714   1.00
C3       0.16773    0.46739    0.98445   1.00
H1       0.15343    0.44179    0.97281   1.00
C2       0.14561    0.49854    1.00052   1.00
C5       0.27121    0.42594    1.06116   1.00
H2       0.30162    0.41448    1.06251   1.00
H2       0.25734    0.41483    1.03387   1.00
C5       0.24871    0.41047    1.09628   1.00
H2       0.21863    0.42280    1.09553   1.00
H2       0.26302    0.42144    1.12335   1.00
C5       0.24738    0.36556    1.09609   1.00
H2       0.27732    0.35305    1.09656   1.00
H2       0.23189    0.35461    1.06974   1.00
C5       0.22555    0.35067    1.13243   1.00
C5       0.23895    0.44069    0.93075   1.00
C5       0.13930    0.56281    1.06755   1.00
H2       0.25912    0.46587    0.92724   1.00
H2       0.21288    0.44549    0.91184   1.00
H2       0.16700    0.56091    1.08456   1.00
H2       0.12105    0.53697    1.07562   1.00
H2       0.05970    0.58514    1.10024   1.00
H2       0.30753    0.42965    0.88293   1.00
H2       0.26237    0.42212    0.85614   1.00
C2       0.35395    0.49748    1.00091   1.00
C3       0.33403    0.51596    0.96995   1.00
O2       0.35326    0.52459    0.93565   1.00
C3       0.33174    0.48177    1.03198   1.00
H1       0.34615    0.46834    1.05660   1.00
C3a      0.29287    0.51744    0.97017   1.00
H1       0.27798    0.52970    0.94520   1.00
C3b      0.29078    0.48218    1.03151   1.00
C4       0.27100    0.50003    1.00042   1.00
O3       0.22833    0.43546    0.97018   1.00
C5       0.36280    0.56462    0.93435   1.00
H2       0.33609    0.58321    0.93615   1.00
C5       0.38326    0.57189    0.89552   1.00
H2       0.38274    0.57264    0.95877   1.00
H2       0.36068    0.57416    0.87226   1.00
H2       0.40093    0.54546    0.88873   1.00
C5       0.40918    0.60857    0.89597   1.00
H2       0.39176    0.63410    0.90579   1.00
C5       0.42547    0.61709    0.85498   1.00
H2       0.43493    0.60472    0.91565   1.00
C5       0.25983    0.40372    0.91748   1.00
H2       0.23785    0.37995    0.91457   1.00
H2       0.28048    0.39471    0.94092   1.00
C5       0.28200    0.40982    0.87888   1.00
C5       0.29775    0.37052    0.86389   1.00
H2       0.05714    0.65359    1.10783   1.00
H2       0.06553    0.63453    1.15799   1.00
H2       0.10677    0.65578    1.12977   1.00
H2       0.21895    0.31827    1.12889   1.00
H2       0.24449    0.35525    1.15938   1.00
H2       0.19707    0.36748    1.13591   1.00
H2       0.45613    0.62969    0.85763   1.00
H2       0.42656    0.58888    0.83741   1.00
H2       0.40577    0.63900    0.83956   1.00
H2       0.29366    0.34727    0.88732   1.00
H2       0.28116    0.36166    0.83646   1.00
H2       0.33010    0.37352    0.85678   1.00
C5       0.88218    0.60056    0.92279   1.00
H2       0.89745    0.60904    0.95007   1.00
H2       0.86090    0.62427    0.91681   1.00
C5       0.91194    0.59741    0.88928   1.00
C5       0.92123    0.63796    0.87232   1.00
H2       0.90015    0.57849    0.86566   1.00
O3       0.73000    0.46710    0.93729   1.00
C4       0.77100    0.49997    1.00042   1.00
C3c      0.79243    0.53121    0.98480   1.00
H1       0.77725    0.55599    0.97253   1.00
C3d      0.79135    0.46821    1.01677   1.00
C3       0.83354    0.53081    0.98421   1.00
O2       0.85248    0.56435    0.97286   1.00
C3       0.83227    0.46739    1.01555   1.00
H1       0.84657    0.44179    1.02719   1.00
C2       0.85439    0.49854    0.99948   1.00
C5       0.72879    0.42594    0.93884   1.00
H2       0.69838    0.41448    0.93749   1.00
H2       0.74266    0.41483    0.96613   1.00
C5       0.75129    0.41047    0.90372   1.00
H2       0.78137    0.42280    0.90447   1.00
H2       0.73698    0.42144    0.87665   1.00
C5       0.75262    0.36556    0.90391   1.00
H2       0.72268    0.35305    0.90344   1.00
H2       0.76811    0.35461    0.93026   1.00
C5       0.77445    0.35067    0.86757   1.00
C5       0.76105    0.44069    1.06925   1.00
C5       0.86070    0.56281    0.93245   1.00
H2       0.74088    0.46587    1.07276   1.00
H2       0.78712    0.44549    1.08816   1.00
H2       0.83300    0.56091    0.91544   1.00
H2       0.87895    0.53697    0.92438   1.00
H2       0.94030    0.58514    0.89976   1.00
H2       0.69247    0.42965    1.11707   1.00
H2       0.73763    0.42212    1.14386   1.00
C2       0.64605    0.49748    0.99909   1.00
C3       0.66597    0.51596    1.03005   1.00
O2       0.64674    0.52459    1.06435   1.00
C3       0.66826    0.48177    0.96802   1.00
H1       0.65385    0.46834    0.94340   1.00
C3a      0.70713    0.51744    1.02983   1.00
H1       0.72202    0.52970    1.05480   1.00
C3b      0.70922    0.48218    0.96849   1.00
C4       0.72900    0.50003    0.99958   1.00
O3       0.77167    0.43546    1.02982   1.00
C5       0.63720    0.56462    1.06565   1.00
H2       0.66391    0.58321    1.06385   1.00
C5       0.61674    0.57189    1.10448   1.00
H2       0.61726    0.57264    1.04123   1.00
H2       0.63932    0.57416    1.12774   1.00
H2       0.59907    0.54546    1.11127   1.00
C5       0.59082    0.60857    1.10403   1.00
H2       0.60824    0.63410    1.09421   1.00
C5       0.57453    0.61709    1.14502   1.00
H2       0.56507    0.60472    1.08435   1.00
C5       0.74017    0.40372    1.08252   1.00
H2       0.76215    0.37995    1.08543   1.00
H2       0.71952    0.39471    1.05908   1.00
C5       0.71800    0.40982    1.12112   1.00
C5       0.70225    0.37052    1.13611   1.00
H2       0.94286    0.65359    0.89217   1.00
H2       0.93447    0.63453    0.84201   1.00
H2       0.89323    0.65578    0.87023   1.00
H2       0.78105    0.31827    0.87111   1.00
H2       0.75551    0.35525    0.84062   1.00
H2       0.80293    0.36748    0.86409   1.00
H2       0.54387    0.62969    1.14237   1.00
H2       0.57344    0.58888    1.16259   1.00
H2       0.59423    0.63900    1.16044   1.00
H2       0.70634    0.34727    1.11268   1.00
H2       0.71884    0.36166    1.16354   1.00
H2       0.66990    0.37352    1.14322   1.00
C5       0.57721    0.11782    1.10056   1.00
H2       0.54993    0.10255    1.10904   1.00
H2       0.58319    0.13910    1.12427   1.00
C5       0.61072    0.08806    1.09741   1.00
C5       0.62768    0.07877    1.13796   1.00
H2       0.63434    0.09985    1.07849   1.00
O3       0.56271    0.27000    0.96710   1.00
C4       0.49958    0.22900    0.99997   1.00
C3c      0.51520    0.20757    1.03121   1.00
H1       0.52747    0.22275    1.05599   1.00
C3d      0.48323    0.20865    0.96821   1.00
C3       0.51579    0.16646    1.03081   1.00
O2       0.52714    0.14752    1.06435   1.00
C3       0.48445    0.16773    0.96739   1.00
H1       0.47281    0.15343    0.94179   1.00
C2       0.50052    0.14561    0.99854   1.00
C5       0.56116    0.27121    0.92594   1.00
H2       0.56251    0.30162    0.91448   1.00
H2       0.53387    0.25734    0.91483   1.00
C5       0.59628    0.24871    0.91047   1.00
H2       0.59553    0.21863    0.92280   1.00
H2       0.62335    0.26302    0.92144   1.00
C5       0.59609    0.24738    0.86556   1.00
H2       0.59656    0.27732    0.85305   1.00
H2       0.56974    0.23189    0.85461   1.00
C5       0.63243    0.22555    0.85067   1.00
C5       0.43075    0.23895    0.94069   1.00
C5       0.56755    0.13930    1.06281   1.00
H2       0.42724    0.25912    0.96587   1.00
H2       0.41184    0.21288    0.94549   1.00
H2       0.58456    0.16700    1.06091   1.00
H2       0.57562    0.12105    1.03697   1.00
H2       0.60024    0.05970    1.08514   1.00
H2       0.38293    0.30753    0.92965   1.00
H2       0.35614    0.26237    0.92212   1.00
C2       0.50091    0.35395    0.99748   1.00
C3       0.46995    0.33403    1.01596   1.00
O2       0.43565    0.35326    1.02459   1.00
C3       0.53198    0.33174    0.98177   1.00
H1       0.55660    0.34615    0.96834   1.00
C3a      0.47017    0.29287    1.01744   1.00
H1       0.44520    0.27798    1.02970   1.00
C3b      0.53151    0.29078    0.98218   1.00
C4       0.50042    0.27100    1.00003   1.00
O3       0.47018    0.22833    0.93546   1.00
C5       0.43435    0.36280    1.06462   1.00
H2       0.43615    0.33609    1.08321   1.00
C5       0.39552    0.38326    1.07189   1.00
H2       0.45877    0.38274    1.07264   1.00
H2       0.37226    0.36068    1.07416   1.00
H2       0.38873    0.40093    1.04546   1.00
C5       0.39597    0.40918    1.10857   1.00
H2       0.40579    0.39176    1.13410   1.00
C5       0.35498    0.42547    1.11709   1.00
H2       0.41565    0.43493    1.10472   1.00
C5       0.41748    0.25983    0.90372   1.00
H2       0.41457    0.23785    0.87995   1.00
H2       0.44092    0.28048    0.89471   1.00
C5       0.37888    0.28200    0.90982   1.00
C5       0.36389    0.29775    0.87052   1.00
H2       0.60783    0.05714    1.15359   1.00
H2       0.65799    0.06553    1.13453   1.00
H2       0.62977    0.10677    1.15578   1.00
H2       0.62889    0.21895    0.81827   1.00
H2       0.65938    0.24449    0.85525   1.00
H2       0.63591    0.19707    0.86748   1.00
H2       0.35763    0.45613    1.12969   1.00
H2       0.33741    0.42656    1.08888   1.00
H2       0.33956    0.40577    1.13900   1.00
H2       0.38732    0.29366    0.84727   1.00
H2       0.33646    0.28116    0.86166   1.00
H2       0.35678    0.33010    0.87352   1.00
C5       0.60056    0.57721    0.61782   1.00
H2       0.60904    0.54993    0.60255   1.00
H2       0.62427    0.58319    0.63910   1.00
C5       0.59741    0.61072    0.58806   1.00
C5       0.63796    0.62768    0.57877   1.00
H2       0.57849    0.63434    0.59985   1.00
O3       0.46710    0.56271    0.77000   1.00
C4       0.49997    0.49958    0.72900   1.00
C3c      0.53121    0.51520    0.70757   1.00
H1       0.55599    0.52747    0.72275   1.00
C3d      0.46821    0.48323    0.70865   1.00
C3       0.53081    0.51579    0.66646   1.00
O2       0.56435    0.52714    0.64752   1.00
C3       0.46739    0.48445    0.66773   1.00
H1       0.44179    0.47281    0.65343   1.00
C2       0.49854    0.50052    0.64561   1.00
C5       0.42594    0.56116    0.77121   1.00
H2       0.41448    0.56251    0.80162   1.00
H2       0.41483    0.53387    0.75734   1.00
C5       0.41047    0.59628    0.74871   1.00
H2       0.42280    0.59553    0.71863   1.00
H2       0.42144    0.62335    0.76302   1.00
C5       0.36556    0.59609    0.74738   1.00
H2       0.35305    0.59656    0.77732   1.00
H2       0.35461    0.56974    0.73189   1.00
C5       0.35067    0.63243    0.72555   1.00
C5       0.44069    0.43075    0.73895   1.00
C5       0.56281    0.56755    0.63930   1.00
H2       0.46587    0.42724    0.75912   1.00
H2       0.44549    0.41184    0.71288   1.00
H2       0.56091    0.58456    0.66700   1.00
H2       0.53697    0.57562    0.62105   1.00
H2       0.58514    0.60024    0.55970   1.00
H2       0.42965    0.38293    0.80753   1.00
H2       0.42212    0.35614    0.76237   1.00
C2       0.49748    0.50091    0.85395   1.00
C3       0.51596    0.46995    0.83403   1.00
O2       0.52459    0.43565    0.85326   1.00
C3       0.48177    0.53198    0.83174   1.00
H1       0.46834    0.55660    0.84615   1.00
C3a      0.51744    0.47017    0.79287   1.00
H1       0.52970    0.44520    0.77798   1.00
C3b      0.48218    0.53151    0.79078   1.00
C4       0.50003    0.50042    0.77100   1.00
O3       0.43546    0.47018    0.72833   1.00
C5       0.56462    0.43435    0.86280   1.00
H2       0.58321    0.43615    0.83609   1.00
C5       0.57189    0.39552    0.88326   1.00
H2       0.57264    0.45877    0.88274   1.00
H2       0.57416    0.37226    0.86068   1.00
H2       0.54546    0.38873    0.90093   1.00
C5       0.60857    0.39597    0.90918   1.00
H2       0.63410    0.40579    0.89176   1.00
C5       0.61709    0.35498    0.92547   1.00
H2       0.60472    0.41565    0.93493   1.00
C5       0.40372    0.41748    0.75983   1.00
H2       0.37995    0.41457    0.73785   1.00
H2       0.39471    0.44092    0.78048   1.00
C5       0.40982    0.37888    0.78200   1.00
C5       0.37052    0.36389    0.79775   1.00
H2       0.65359    0.60783    0.55714   1.00
H2       0.63453    0.65799    0.56553   1.00
H2       0.65578    0.62977    0.60677   1.00
H2       0.31827    0.62889    0.71895   1.00
H2       0.35525    0.65938    0.74449   1.00
H2       0.36748    0.63591    0.69707   1.00
H2       0.62969    0.35763    0.95613   1.00
H2       0.58888    0.33741    0.92656   1.00
H2       0.63900    0.33956    0.90577   1.00
H2       0.34727    0.38732    0.79366   1.00
H2       0.36166    0.33646    0.78116   1.00
H2       0.37352    0.35678    0.83010   1.00
C5       0.60056    0.92279    0.88218   1.00
H2       0.60904    0.95007    0.89745   1.00
H2       0.62427    0.91681    0.86090   1.00
C5       0.59741    0.88928    0.91194   1.00
C5       0.63796    0.87232    0.92123   1.00
H2       0.57849    0.86566    0.90015   1.00
O3       0.46710    0.93729    0.73000   1.00
C4       0.49997    1.00042    0.77100   1.00
C3c      0.53121    0.98480    0.79243   1.00
H1       0.55599    0.97253    0.77725   1.00
C3d      0.46821    1.01677    0.79135   1.00
C3       0.53081    0.98421    0.83354   1.00
O2       0.56435    0.97286    0.85248   1.00
C3       0.46739    1.01555    0.83227   1.00
H1       0.44179    1.02719    0.84657   1.00
C2       0.49854    0.99948    0.85439   1.00
C5       0.42594    0.93884    0.72879   1.00
H2       0.41448    0.93749    0.69838   1.00
H2       0.41483    0.96613    0.74266   1.00
C5       0.41047    0.90372    0.75129   1.00
H2       0.42280    0.90447    0.78137   1.00
H2       0.42144    0.87665    0.73698   1.00
C5       0.36556    0.90391    0.75262   1.00
H2       0.35305    0.90344    0.72268   1.00
H2       0.35461    0.93026    0.76811   1.00
C5       0.35067    0.86757    0.77445   1.00
C5       0.44069    1.06925    0.76105   1.00
C5       0.56281    0.93245    0.86070   1.00
H2       0.46587    1.07276    0.74088   1.00
H2       0.44549    1.08816    0.78712   1.00
H2       0.56091    0.91544    0.83300   1.00
H2       0.53697    0.92438    0.87895   1.00
H2       0.58514    0.89976    0.94030   1.00
H2       0.42965    1.11707    0.69247   1.00
H2       0.42212    1.14386    0.73763   1.00
C2       0.49748    0.99909    0.64605   1.00
C3       0.51596    1.03005    0.66597   1.00
O2       0.52459    1.06435    0.64674   1.00
C3       0.48177    0.96802    0.66826   1.00
H1       0.46834    0.94340    0.65385   1.00
C3a      0.51744    1.02983    0.70713   1.00
H1       0.52970    1.05480    0.72202   1.00
C3b      0.48218    0.96849    0.70922   1.00
C4       0.50003    0.99958    0.72900   1.00
O3       0.43546    1.02982    0.77167   1.00
C5       0.56462    1.06565    0.63720   1.00
H2       0.58321    1.06385    0.66391   1.00
C5       0.57189    1.10448    0.61674   1.00
H2       0.57264    1.04123    0.61726   1.00
H2       0.57416    1.12774    0.63932   1.00
H2       0.54546    1.11127    0.59907   1.00
C5       0.60857    1.10403    0.59082   1.00
H2       0.63410    1.09421    0.60824   1.00
C5       0.61709    1.14502    0.57453   1.00
H2       0.60472    1.08435    0.56507   1.00
C5       0.40372    1.08252    0.74017   1.00
H2       0.37995    1.08543    0.76215   1.00
H2       0.39471    1.05908    0.71952   1.00
C5       0.40982    1.12112    0.71800   1.00
C5       0.37052    1.13611    0.70225   1.00
H2       0.65359    0.89217    0.94286   1.00
H2       0.63453    0.84201    0.93447   1.00
H2       0.65578    0.87023    0.89323   1.00
H2       0.31827    0.87111    0.78105   1.00
H2       0.35525    0.84062    0.75551   1.00
H2       0.36748    0.86409    0.80293   1.00
H2       0.62969    1.14237    0.54387   1.00
H2       0.58888    1.16259    0.57344   1.00
H2       0.63900    1.16044    0.59423   1.00
H2       0.34727    1.11268    0.70634   1.00
H2       0.36166    1.16354    0.71884   1.00
H2       0.37352    1.14322    0.66990   1.00
C5       0.42279    1.38218    0.60056   1.00
H2       0.45007    1.39745    0.60904   1.00
H2       0.41681    1.36090    0.62427   1.00
C5       0.38928    1.41194    0.59741   1.00
C5       0.37232    1.42123    0.63796   1.00
H2       0.36566    1.40015    0.57849   1.00
O3       0.43729    1.23000    0.46710   1.00
C4       0.50042    1.27100    0.49997   1.00
C3c      0.48480    1.29243    0.53121   1.00
H1       0.47253    1.27725    0.55599   1.00
C3d      0.51677    1.29135    0.46821   1.00
C3       0.48421    1.33354    0.53081   1.00
O2       0.47286    1.35248    0.56435   1.00
C3       0.51555    1.33227    0.46739   1.00
H1       0.52719    1.34657    0.44179   1.00
C2       0.49948    1.35439    0.49854   1.00
C5       0.43884    1.22879    0.42594   1.00
H2       0.43749    1.19838    0.41448   1.00
H2       0.46613    1.24266    0.41483   1.00
C5       0.40372    1.25129    0.41047   1.00
H2       0.40447    1.28137    0.42280   1.00
H2       0.37665    1.23698    0.42144   1.00
C5       0.40391    1.25262    0.36556   1.00
H2       0.40344    1.22268    0.35305   1.00
H2       0.43026    1.26811    0.35461   1.00
C5       0.36757    1.27445    0.35067   1.00
C5       0.56925    1.26105    0.44069   1.00
C5       0.43245    1.36070    0.56281   1.00
H2       0.57276    1.24088    0.46587   1.00
H2       0.58816    1.28712    0.44549   1.00
H2       0.41544    1.33300    0.56091   1.00
H2       0.42438    1.37895    0.53697   1.00
H2       0.39976    1.44030    0.58514   1.00
H2       0.61707    1.19247    0.42965   1.00
H2       0.64386    1.23763    0.42212   1.00
C2       0.49909    1.14605    0.49748   1.00
C3       0.53005    1.16597    0.51596   1.00
O2       0.56435    1.14674    0.52459   1.00
C3       0.46802    1.16826    0.48177   1.00
H1       0.44340    1.15385    0.46834   1.00
C3a      0.52983    1.20713    0.51744   1.00
H1       0.55480    1.22202    0.52970   1.00
C3b      0.46849    1.20922    0.48218   1.00
C4       0.49958    1.22900    0.50003   1.00
O3       0.52982    1.27167    0.43546   1.00
C5       0.56565    1.13720    0.56462   1.00
H2       0.56385    1.16391    0.58321   1.00
C5       0.60448    1.11674    0.57189   1.00
H2       0.54123    1.11726    0.57264   1.00
H2       0.62774    1.13932    0.57416   1.00
H2       0.61127    1.09907    0.54546   1.00
C5       0.60403    1.09082    0.60857   1.00
H2       0.59421    1.10824    0.63410   1.00
C5       0.64502    1.07453    0.61709   1.00
H2       0.58435    1.06507    0.60472   1.00
C5       0.58252    1.24017    0.40372   1.00
H2       0.58543    1.26215    0.37995   1.00
H2       0.55908    1.21952    0.39471   1.00
C5       0.62112    1.21800    0.40982   1.00
C5       0.63611    1.20225    0.37052   1.00
H2       0.39217    1.44286    0.65359   1.00
H2       0.34201    1.43447    0.63453   1.00
H2       0.37023    1.39323    0.65578   1.00
H2       0.37111    1.28105    0.31827   1.00
H2       0.34062    1.25551    0.35525   1.00
H2       0.36409    1.30293    0.36748   1.00
H2       0.64237    1.04387    0.62969   1.00
H2       0.66259    1.07344    0.58888   1.00
H2       0.66044    1.09423    0.63900   1.00
H2       0.61268    1.20634    0.34727   1.00
H2       0.66354    1.21884    0.36166   1.00
H2       0.64322    1.16990    0.37352   1.00
C5       0.11782    1.10056    0.57721   1.00
H2       0.10255    1.10904    0.54993   1.00
H2       0.13910    1.12427    0.58319   1.00
C5       0.08806    1.09741    0.61072   1.00
C5       0.07877    1.13796    0.62768   1.00
H2       0.09985    1.07849    0.63434   1.00
O3       0.27000    0.96710    0.56271   1.00
C4       0.22900    0.99997    0.49958   1.00
C3c      0.20757    1.03121    0.51520   1.00
H1       0.22275    1.05599    0.52747   1.00
C3d      0.20865    0.96821    0.48323   1.00
C3       0.16646    1.03081    0.51579   1.00
O2       0.14752    1.06435    0.52714   1.00
C3       0.16773    0.96739    0.48445   1.00
H1       0.15343    0.94179    0.47281   1.00
C2       0.14561    0.99854    0.50052   1.00
C5       0.27121    0.92594    0.56116   1.00
H2       0.30162    0.91448    0.56251   1.00
H2       0.25734    0.91483    0.53387   1.00
C5       0.24871    0.91047    0.59628   1.00
H2       0.21863    0.92280    0.59553   1.00
H2       0.26302    0.92144    0.62335   1.00
C5       0.24738    0.86556    0.59609   1.00
H2       0.27732    0.85305    0.59656   1.00
H2       0.23189    0.85461    0.56974   1.00
C5       0.22555    0.85067    0.63243   1.00
C5       0.23895    0.94069    0.43075   1.00
C5       0.13930    1.06281    0.56755   1.00
H2       0.25912    0.96587    0.42724   1.00
H2       0.21288    0.94549    0.41184   1.00
H2       0.16700    1.06091    0.58456   1.00
H2       0.12105    1.03697    0.57562   1.00
H2       0.05970    1.08514    0.60024   1.00
H2       0.30753    0.92965    0.38293   1.00
H2       0.26237    0.92212    0.35614   1.00
C2       0.35395    0.99748    0.50091   1.00
C3       0.33403    1.01596    0.46995   1.00
O2       0.35326    1.02459    0.43565   1.00
C3       0.33174    0.98177    0.53198   1.00
H1       0.34615    0.96834    0.55660   1.00
C3a      0.29287    1.01744    0.47017   1.00
H1       0.27798    1.02970    0.44520   1.00
C3b      0.29078    0.98218    0.53151   1.00
C4       0.27100    1.00003    0.50042   1.00
O3       0.22833    0.93546    0.47018   1.00
C5       0.36280    1.06462    0.43435   1.00
H2       0.33609    1.08321    0.43615   1.00
C5       0.38326    1.07189    0.39552   1.00
H2       0.38274    1.07264    0.45877   1.00
H2       0.36068    1.07416    0.37226   1.00
H2       0.40093    1.04546    0.38873   1.00
C5       0.40918    1.10857    0.39597   1.00
H2       0.39176    1.13410    0.40579   1.00
C5       0.42547    1.11709    0.35498   1.00
H2       0.43493    1.10472    0.41565   1.00
C5       0.25983    0.90372    0.41748   1.00
H2       0.23785    0.87995    0.41457   1.00
H2       0.28048    0.89471    0.44092   1.00
C5       0.28200    0.90982    0.37888   1.00
C5       0.29775    0.87052    0.36389   1.00
H2       0.05714    1.15359    0.60783   1.00
H2       0.06553    1.13453    0.65799   1.00
H2       0.10677    1.15578    0.62977   1.00
H2       0.21895    0.81827    0.62889   1.00
H2       0.24449    0.85525    0.65938   1.00
H2       0.19707    0.86748    0.63591   1.00
H2       0.45613    1.12969    0.35763   1.00
H2       0.42656    1.08888    0.33741   1.00
H2       0.40577    1.13900    0.33956   1.00
H2       0.29366    0.84727    0.38732   1.00
H2       0.28116    0.86166    0.33646   1.00
H2       0.33010    0.87352    0.35678   1.00
C5       0.88218    1.10056    0.42279   1.00
H2       0.89745    1.10904    0.45007   1.00
H2       0.86090    1.12427    0.41681   1.00
C5       0.91194    1.09741    0.38928   1.00
C5       0.92123    1.13796    0.37232   1.00
H2       0.90015    1.07849    0.36566   1.00
O3       0.73000    0.96710    0.43729   1.00
C4       0.77100    0.99997    0.50042   1.00
C3c      0.79243    1.03121    0.48480   1.00
H1       0.77725    1.05599    0.47253   1.00
C3d      0.79135    0.96821    0.51677   1.00
C3       0.83354    1.03081    0.48421   1.00
O2       0.85248    1.06435    0.47286   1.00
C3       0.83227    0.96739    0.51555   1.00
H1       0.84657    0.94179    0.52719   1.00
C2       0.85439    0.99854    0.49948   1.00
C5       0.72879    0.92594    0.43884   1.00
H2       0.69838    0.91448    0.43749   1.00
H2       0.74266    0.91483    0.46613   1.00
C5       0.75129    0.91047    0.40372   1.00
H2       0.78137    0.92280    0.40447   1.00
H2       0.73698    0.92144    0.37665   1.00
C5       0.75262    0.86556    0.40391   1.00
H2       0.72268    0.85305    0.40344   1.00
H2       0.76811    0.85461    0.43026   1.00
C5       0.77445    0.85067    0.36757   1.00
C5       0.76105    0.94069    0.56925   1.00
C5       0.86070    1.06281    0.43245   1.00
H2       0.74088    0.96587    0.57276   1.00
H2       0.78712    0.94549    0.58816   1.00
H2       0.83300    1.06091    0.41544   1.00
H2       0.87895    1.03697    0.42438   1.00
H2       0.94030    1.08514    0.39976   1.00
H2       0.69247    0.92965    0.61707   1.00
H2       0.73763    0.92212    0.64386   1.00
C2       0.64605    0.99748    0.49909   1.00
C3       0.66597    1.01596    0.53005   1.00
O2       0.64674    1.02459    0.56435   1.00
C3       0.66826    0.98177    0.46802   1.00
H1       0.65385    0.96834    0.44340   1.00
C3a      0.70713    1.01744    0.52983   1.00
H1       0.72202    1.02970    0.55480   1.00
C3b      0.70922    0.98218    0.46849   1.00
C4       0.72900    1.00003    0.49958   1.00
O3       0.77167    0.93546    0.52982   1.00
C5       0.63720    1.06462    0.56565   1.00
H2       0.66391    1.08321    0.56385   1.00
C5       0.61674    1.07189    0.60448   1.00
H2       0.61726    1.07264    0.54123   1.00
H2       0.63932    1.07416    0.62774   1.00
H2       0.59907    1.04546    0.61127   1.00
C5       0.59082    1.10857    0.60403   1.00
H2       0.60824    1.13410    0.59421   1.00
C5       0.57453    1.11709    0.64502   1.00
H2       0.56507    1.10472    0.58435   1.00
C5       0.74017    0.90372    0.58252   1.00
H2       0.76215    0.87995    0.58543   1.00
H2       0.71952    0.89471    0.55908   1.00
C5       0.71800    0.90982    0.62112   1.00
C5       0.70225    0.87052    0.63611   1.00
H2       0.94286    1.15359    0.39217   1.00
H2       0.93447    1.13453    0.34201   1.00
H2       0.89323    1.15578    0.37023   1.00
H2       0.78105    0.81827    0.37111   1.00
H2       0.75551    0.85525    0.34062   1.00
H2       0.80293    0.86748    0.36409   1.00
H2       0.54387    1.12969    0.64237   1.00
H2       0.57344    1.08888    0.66259   1.00
H2       0.59423    1.13900    0.66044   1.00
H2       0.70634    0.84727    0.61268   1.00
H2       0.71884    0.86166    0.66354   1.00
H2       0.66990    0.87352    0.64322   1.00
C5       0.57721    0.61782    0.60056   1.00
H2       0.54993    0.60255    0.60904   1.00
H2       0.58319    0.63910    0.62427   1.00
C5       0.61072    0.58806    0.59741   1.00
C5       0.62768    0.57877    0.63796   1.00
H2       0.63434    0.59985    0.57849   1.00
O3       0.56271    0.77000    0.46710   1.00
C4       0.49958    0.72900    0.49997   1.00
C3c      0.51520    0.70757    0.53121   1.00
H1       0.52747    0.72275    0.55599   1.00
C3d      0.48323    0.70865    0.46821   1.00
C3       0.51579    0.66646    0.53081   1.00
O2       0.52714    0.64752    0.56435   1.00
C3       0.48445    0.66773    0.46739   1.00
H1       0.47281    0.65343    0.44179   1.00
C2       0.50052    0.64561    0.49854   1.00
C5       0.56116    0.77121    0.42594   1.00
H2       0.56251    0.80162    0.41448   1.00
H2       0.53387    0.75734    0.41483   1.00
C5       0.59628    0.74871    0.41047   1.00
H2       0.59553    0.71863    0.42280   1.00
H2       0.62335    0.76302    0.42144   1.00
C5       0.59609    0.74738    0.36556   1.00
H2       0.59656    0.77732    0.35305   1.00
H2       0.56974    0.73189    0.35461   1.00
C5       0.63243    0.72555    0.35067   1.00
C5       0.43075    0.73895    0.44069   1.00
C5       0.56755    0.63930    0.56281   1.00
H2       0.42724    0.75912    0.46587   1.00
H2       0.41184    0.71288    0.44549   1.00
H2       0.58456    0.66700    0.56091   1.00
H2       0.57562    0.62105    0.53697   1.00
H2       0.60024    0.55970    0.58514   1.00
H2       0.38293    0.80753    0.42965   1.00
H2       0.35614    0.76237    0.42212   1.00
C2       0.50091    0.85395    0.49748   1.00
C3       0.46995    0.83403    0.51596   1.00
O2       0.43565    0.85326    0.52459   1.00
C3       0.53198    0.83174    0.48177   1.00
H1       0.55660    0.84615    0.46834   1.00
C3a      0.47017    0.79287    0.51744   1.00
H1       0.44520    0.77798    0.52970   1.00
C3b      0.53151    0.79078    0.48218   1.00
C4       0.50042    0.77100    0.50003   1.00
O3       0.47018    0.72833    0.43546   1.00
C5       0.43435    0.86280    0.56462   1.00
H2       0.43615    0.83609    0.58321   1.00
C5       0.39552    0.88326    0.57189   1.00
H2       0.45877    0.88274    0.57264   1.00
H2       0.37226    0.86068    0.57416   1.00
H2       0.38873    0.90093    0.54546   1.00
C5       0.39597    0.90918    0.60857   1.00
H2       0.40579    0.89176    0.63410   1.00
C5       0.35498    0.92547    0.61709   1.00
H2       0.41565    0.93493    0.60472   1.00
C5       0.41748    0.75983    0.40372   1.00
H2       0.41457    0.73785    0.37995   1.00
H2       0.44092    0.78048    0.39471   1.00
C5       0.37888    0.78200    0.40982   1.00
C5       0.36389    0.79775    0.37052   1.00
H2       0.60783    0.55714    0.65359   1.00
H2       0.65799    0.56553    0.63453   1.00
H2       0.62977    0.60677    0.65578   1.00
H2       0.62889    0.71895    0.31827   1.00
H2       0.65938    0.74449    0.35525   1.00
H2       0.63591    0.69707    0.36748   1.00
H2       0.35763    0.95613    0.62969   1.00
H2       0.33741    0.92656    0.58888   1.00
H2       0.33956    0.90577    0.63900   1.00
H2       0.38732    0.79366    0.34727   1.00
H2       0.33646    0.78116    0.36166   1.00
H2       0.35678    0.83010    0.37352   1.00
C5       0.60056    1.07721    0.11782   1.00
H2       0.60904    1.04993    0.10255   1.00
H2       0.62427    1.08319    0.13910   1.00
C5       0.59741    1.11072    0.08806   1.00
C5       0.63796    1.12768    0.07877   1.00
H2       0.57849    1.13434    0.09985   1.00
O3       0.46710    1.06271    0.27000   1.00
C4       0.49997    0.99958    0.22900   1.00
C3c      0.53121    1.01520    0.20757   1.00
H1       0.55599    1.02747    0.22275   1.00
C3d      0.46821    0.98323    0.20865   1.00
C3       0.53081    1.01579    0.16646   1.00
O2       0.56435    1.02714    0.14752   1.00
C3       0.46739    0.98445    0.16773   1.00
H1       0.44179    0.97281    0.15343   1.00
C2       0.49854    1.00052    0.14561   1.00
C5       0.42594    1.06116    0.27121   1.00
H2       0.41448    1.06251    0.30162   1.00
H2       0.41483    1.03387    0.25734   1.00
C5       0.41047    1.09628    0.24871   1.00
H2       0.42280    1.09553    0.21863   1.00
H2       0.42144    1.12335    0.26302   1.00
C5       0.36556    1.09609    0.24738   1.00
H2       0.35305    1.09656    0.27732   1.00
H2       0.35461    1.06974    0.23189   1.00
C5       0.35067    1.13243    0.22555   1.00
C5       0.44069    0.93075    0.23895   1.00
C5       0.56281    1.06755    0.13930   1.00
H2       0.46587    0.92724    0.25912   1.00
H2       0.44549    0.91184    0.21288   1.00
H2       0.56091    1.08456    0.16700   1.00
H2       0.53697    1.07562    0.12105   1.00
H2       0.58514    1.10024    0.05970   1.00
H2       0.42965    0.88293    0.30753   1.00
H2       0.42212    0.85614    0.26237   1.00
C2       0.49748    1.00091    0.35395   1.00
C3       0.51596    0.96995    0.33403   1.00
O2       0.52459    0.93565    0.35326   1.00
C3       0.48177    1.03198    0.33174   1.00
H1       0.46834    1.05660    0.34615   1.00
C3a      0.51744    0.97017    0.29287   1.00
H1       0.52970    0.94520    0.27798   1.00
C3b      0.48218    1.03151    0.29078   1.00
C4       0.50003    1.00042    0.27100   1.00
O3       0.43546    0.97018    0.22833   1.00
C5       0.56462    0.93435    0.36280   1.00
H2       0.58321    0.93615    0.33609   1.00
C5       0.57189    0.89552    0.38326   1.00
H2       0.57264    0.95877    0.38274   1.00
H2       0.57416    0.87226    0.36068   1.00
H2       0.54546    0.88873    0.40093   1.00
C5       0.60857    0.89597    0.40918   1.00
H2       0.63410    0.90579    0.39176   1.00
C5       0.61709    0.85498    0.42547   1.00
H2       0.60472    0.91565    0.43493   1.00
C5       0.40372    0.91748    0.25983   1.00
H2       0.37995    0.91457    0.23785   1.00
H2       0.39471    0.94092    0.28048   1.00
C5       0.40982    0.87888    0.28200   1.00
C5       0.37052    0.86389    0.29775   1.00
H2       0.65359    1.10783    0.05714   1.00
H2       0.63453    1.15799    0.06553   1.00
H2       0.65578    1.12977    0.10677   1.00
H2       0.31827    1.12889    0.21895   1.00
H2       0.35525    1.15938    0.24449   1.00
H2       0.36748    1.13591    0.19707   1.00
H2       0.62969    0.85763    0.45613   1.00
H2       0.58888    0.83741    0.42656   1.00
H2       0.63900    0.83956    0.40577   1.00
H2       0.34727    0.88732    0.29366   1.00
H2       0.36166    0.83646    0.28116   1.00
H2       0.37352    0.85678    0.33010   1.00
C5       1.10056    0.42279    0.88218   1.00
H2       1.10904    0.45007    0.89745   1.00
H2       1.12427    0.41681    0.86090   1.00
C5       1.09741    0.38928    0.91194   1.00
C5       1.13796    0.37232    0.92123   1.00
H2       1.07849    0.36566    0.90015   1.00
O3       0.96710    0.43729    0.73000   1.00
C4       0.99997    0.50042    0.77100   1.00
C3c      1.03121    0.48480    0.79243   1.00
H1       1.05599    0.47253    0.77725   1.00
C3d      0.96821    0.51677    0.79135   1.00
C3       1.03081    0.48421    0.83354   1.00
O2       1.06435    0.47286    0.85248   1.00
C3       0.96739    0.51555    0.83227   1.00
H1       0.94179    0.52719    0.84657   1.00
C2       0.99854    0.49948    0.85439   1.00
C5       0.92594    0.43884    0.72879   1.00
H2       0.91448    0.43749    0.69838   1.00
H2       0.91483    0.46613    0.74266   1.00
C5       0.91047    0.40372    0.75129   1.00
H2       0.92280    0.40447    0.78137   1.00
H2       0.92144    0.37665    0.73698   1.00
C5       0.86556    0.40391    0.75262   1.00
H2       0.85305    0.40344    0.72268   1.00
H2       0.85461    0.43026    0.76811   1.00
C5       0.85067    0.36757    0.77445   1.00
C5       0.94069    0.56925    0.76105   1.00
C5       1.06281    0.43245    0.86070   1.00
H2       0.96587    0.57276    0.74088   1.00
H2       0.94549    0.58816    0.78712   1.00
H2       1.06091    0.41544    0.83300   1.00
H2       1.03697    0.42438    0.87895   1.00
H2       1.08514    0.39976    0.94030   1.00
H2       0.92965    0.61707    0.69247   1.00
H2       0.92212    0.64386    0.73763   1.00
C2       0.99748    0.49909    0.64605   1.00
C3       1.01596    0.53005    0.66597   1.00
O2       1.02459    0.56435    0.64674   1.00
C3       0.98177    0.46802    0.66826   1.00
H1       0.96834    0.44340    0.65385   1.00
C3a      1.01744    0.52983    0.70713   1.00
H1       1.02970    0.55480    0.72202   1.00
C3b      0.98218    0.46849    0.70922   1.00
C4       1.00003    0.49958    0.72900   1.00
O3       0.93546    0.52982    0.77167   1.00
C5       1.06462    0.56565    0.63720   1.00
H2       1.08321    0.56385    0.66391   1.00
C5       1.07189    0.60448    0.61674   1.00
H2       1.07264    0.54123    0.61726   1.00
H2       1.07416    0.62774    0.63932   1.00
H2       1.04546    0.61127    0.59907   1.00
C5       1.10857    0.60403    0.59082   1.00
H2       1.13410    0.59421    0.60824   1.00
C5       1.11709    0.64502    0.57453   1.00
H2       1.10472    0.58435    0.56507   1.00
C5       0.90372    0.58252    0.74017   1.00
H2       0.87995    0.58543    0.76215   1.00
H2       0.89471    0.55908    0.71952   1.00
C5       0.90982    0.62112    0.71800   1.00
C5       0.87052    0.63611    0.70225   1.00
H2       1.15359    0.39217    0.94286   1.00
H2       1.13453    0.34201    0.93447   1.00
H2       1.15578    0.37023    0.89323   1.00
H2       0.81827    0.37111    0.78105   1.00
H2       0.85525    0.34062    0.75551   1.00
H2       0.86748    0.36409    0.80293   1.00
H2       1.12969    0.64237    0.54387   1.00
H2       1.08888    0.66259    0.57344   1.00
H2       1.13900    0.66044    0.59423   1.00
H2       0.84727    0.61268    0.70634   1.00
H2       0.86166    0.66354    0.71884   1.00
H2       0.87352    0.64322    0.66990   1.00
C5       0.92279    0.88218    0.60056   1.00
H2       0.95007    0.89745    0.60904   1.00
H2       0.91681    0.86090    0.62427   1.00
C5       0.88928    0.91194    0.59741   1.00
C5       0.87232    0.92123    0.63796   1.00
H2       0.86566    0.90015    0.57849   1.00
O3       0.93729    0.73000    0.46710   1.00
C4       1.00042    0.77100    0.49997   1.00
C3c      0.98480    0.79243    0.53121   1.00
H1       0.97253    0.77725    0.55599   1.00
C3d      1.01677    0.79135    0.46821   1.00
C3       0.98421    0.83354    0.53081   1.00
O2       0.97286    0.85248    0.56435   1.00
C3       1.01555    0.83227    0.46739   1.00
H1       1.02719    0.84657    0.44179   1.00
C2       0.99948    0.85439    0.49854   1.00
C5       0.93884    0.72879    0.42594   1.00
H2       0.93749    0.69838    0.41448   1.00
H2       0.96613    0.74266    0.41483   1.00
C5       0.90372    0.75129    0.41047   1.00
H2       0.90447    0.78137    0.42280   1.00
H2       0.87665    0.73698    0.42144   1.00
C5       0.90391    0.75262    0.36556   1.00
H2       0.90344    0.72268    0.35305   1.00
H2       0.93026    0.76811    0.35461   1.00
C5       0.86757    0.77445    0.35067   1.00
C5       1.06925    0.76105    0.44069   1.00
C5       0.93245    0.86070    0.56281   1.00
H2       1.07276    0.74088    0.46587   1.00
H2       1.08816    0.78712    0.44549   1.00
H2       0.91544    0.83300    0.56091   1.00
H2       0.92438    0.87895    0.53697   1.00
H2       0.89976    0.94030    0.58514   1.00
H2       1.11707    0.69247    0.42965   1.00
H2       1.14386    0.73763    0.42212   1.00
C2       0.99909    0.64605    0.49748   1.00
C3       1.03005    0.66597    0.51596   1.00
O2       1.06435    0.64674    0.52459   1.00
C3       0.96802    0.66826    0.48177   1.00
H1       0.94340    0.65385    0.46834   1.00
C3a      1.02983    0.70713    0.51744   1.00
H1       1.05480    0.72202    0.52970   1.00
C3b      0.96849    0.70922    0.48218   1.00
C4       0.99958    0.72900    0.50003   1.00
O3       1.02982    0.77167    0.43546   1.00
C5       1.06565    0.63720    0.56462   1.00
H2       1.06385    0.66391    0.58321   1.00
C5       1.10448    0.61674    0.57189   1.00
H2       1.04123    0.61726    0.57264   1.00
H2       1.12774    0.63932    0.57416   1.00
H2       1.11127    0.59907    0.54546   1.00
C5       1.10403    0.59082    0.60857   1.00
H2       1.09421    0.60824    0.63410   1.00
C5       1.14502    0.57453    0.61709   1.00
H2       1.08435    0.56507    0.60472   1.00
C5       1.08252    0.74017    0.40372   1.00
H2       1.08543    0.76215    0.37995   1.00
H2       1.05908    0.71952    0.39471   1.00
C5       1.12112    0.71800    0.40982   1.00
C5       1.13611    0.70225    0.37052   1.00
H2       0.89217    0.94286    0.65359   1.00
H2       0.84201    0.93447    0.63453   1.00
H2       0.87023    0.89323    0.65578   1.00
H2       0.87111    0.78105    0.31827   1.00
H2       0.84062    0.75551    0.35525   1.00
H2       0.86409    0.80293    0.36748   1.00
H2       1.14237    0.54387    0.62969   1.00
H2       1.16259    0.57344    0.58888   1.00
H2       1.16044    0.59423    0.63900   1.00
H2       1.11268    0.70634    0.34727   1.00
H2       1.16354    0.71884    0.36166   1.00
H2       1.14322    0.66990    0.37352   1.00
C5       0.61782    0.60056    0.57721   1.00
H2       0.60255    0.60904    0.54993   1.00
H2       0.63910    0.62427    0.58319   1.00
C5       0.58806    0.59741    0.61072   1.00
C5       0.57877    0.63796    0.62768   1.00
H2       0.59985    0.57849    0.63434   1.00
O3       0.77000    0.46710    0.56271   1.00
C4       0.72900    0.49997    0.49958   1.00
C3c      0.70757    0.53121    0.51520   1.00
H1       0.72275    0.55599    0.52747   1.00
C3d      0.70865    0.46821    0.48323   1.00
C3       0.66646    0.53081    0.51579   1.00
O2       0.64752    0.56435    0.52714   1.00
C3       0.66773    0.46739    0.48445   1.00
H1       0.65343    0.44179    0.47281   1.00
C2       0.64561    0.49854    0.50052   1.00
C5       0.77121    0.42594    0.56116   1.00
H2       0.80162    0.41448    0.56251   1.00
H2       0.75734    0.41483    0.53387   1.00
C5       0.74871    0.41047    0.59628   1.00
H2       0.71863    0.42280    0.59553   1.00
H2       0.76302    0.42144    0.62335   1.00
C5       0.74738    0.36556    0.59609   1.00
H2       0.77732    0.35305    0.59656   1.00
H2       0.73189    0.35461    0.56974   1.00
C5       0.72555    0.35067    0.63243   1.00
C5       0.73895    0.44069    0.43075   1.00
C5       0.63930    0.56281    0.56755   1.00
H2       0.75912    0.46587    0.42724   1.00
H2       0.71288    0.44549    0.41184   1.00
H2       0.66700    0.56091    0.58456   1.00
H2       0.62105    0.53697    0.57562   1.00
H2       0.55970    0.58514    0.60024   1.00
H2       0.80753    0.42965    0.38293   1.00
H2       0.76237    0.42212    0.35614   1.00
C2       0.85395    0.49748    0.50091   1.00
C3       0.83403    0.51596    0.46995   1.00
O2       0.85326    0.52459    0.43565   1.00
C3       0.83174    0.48177    0.53198   1.00
H1       0.84615    0.46834    0.55660   1.00
C3a      0.79287    0.51744    0.47017   1.00
H1       0.77798    0.52970    0.44520   1.00
C3b      0.79078    0.48218    0.53151   1.00
C4       0.77100    0.50003    0.50042   1.00
O3       0.72833    0.43546    0.47018   1.00
C5       0.86280    0.56462    0.43435   1.00
H2       0.83609    0.58321    0.43615   1.00
C5       0.88326    0.57189    0.39552   1.00
H2       0.88274    0.57264    0.45877   1.00
H2       0.86068    0.57416    0.37226   1.00
H2       0.90093    0.54546    0.38873   1.00
C5       0.90918    0.60857    0.39597   1.00
H2       0.89176    0.63410    0.40579   1.00
C5       0.92547    0.61709    0.35498   1.00
H2       0.93493    0.60472    0.41565   1.00
C5       0.75983    0.40372    0.41748   1.00
H2       0.73785    0.37995    0.41457   1.00
H2       0.78048    0.39471    0.44092   1.00
C5       0.78200    0.40982    0.37888   1.00
C5       0.79775    0.37052    0.36389   1.00
H2       0.55714    0.65359    0.60783   1.00
H2       0.56553    0.63453    0.65799   1.00
H2       0.60677    0.65578    0.62977   1.00
H2       0.71895    0.31827    0.62889   1.00
H2       0.74449    0.35525    0.65938   1.00
H2       0.69707    0.36748    0.63591   1.00
H2       0.95613    0.62969    0.35763   1.00
H2       0.92656    0.58888    0.33741   1.00
H2       0.90577    0.63900    0.33956   1.00
H2       0.79366    0.34727    0.38732   1.00
H2       0.78116    0.36166    0.33646   1.00
H2       0.83010    0.37352    0.35678   1.00
C5       1.38218    0.60056    0.42279   1.00
H2       1.39745    0.60904    0.45007   1.00
H2       1.36090    0.62427    0.41681   1.00
C5       1.41194    0.59741    0.38928   1.00
C5       1.42123    0.63796    0.37232   1.00
H2       1.40015    0.57849    0.36566   1.00
O3       1.23000    0.46710    0.43729   1.00
C4       1.27100    0.49997    0.50042   1.00
C3c      1.29243    0.53121    0.48480   1.00
H1       1.27725    0.55599    0.47253   1.00
C3d      1.29135    0.46821    0.51677   1.00
C3       1.33354    0.53081    0.48421   1.00
O2       1.35248    0.56435    0.47286   1.00
C3       1.33227    0.46739    0.51555   1.00
H1       1.34657    0.44179    0.52719   1.00
C2       1.35439    0.49854    0.49948   1.00
C5       1.22879    0.42594    0.43884   1.00
H2       1.19838    0.41448    0.43749   1.00
H2       1.24266    0.41483    0.46613   1.00
C5       1.25129    0.41047    0.40372   1.00
H2       1.28137    0.42280    0.40447   1.00
H2       1.23698    0.42144    0.37665   1.00
C5       1.25262    0.36556    0.40391   1.00
H2       1.22268    0.35305    0.40344   1.00
H2       1.26811    0.35461    0.43026   1.00
C5       1.27445    0.35067    0.36757   1.00
C5       1.26105    0.44069    0.56925   1.00
C5       1.36070    0.56281    0.43245   1.00
H2       1.24088    0.46587    0.57276   1.00
H2       1.28712    0.44549    0.58816   1.00
H2       1.33300    0.56091    0.41544   1.00
H2       1.37895    0.53697    0.42438   1.00
H2       1.44030    0.58514    0.39976   1.00
H2       1.19247    0.42965    0.61707   1.00
H2       1.23763    0.42212    0.64386   1.00
C2       1.14605    0.49748    0.49909   1.00
C3       1.16597    0.51596    0.53005   1.00
O2       1.14674    0.52459    0.56435   1.00
C3       1.16826    0.48177    0.46802   1.00
H1       1.15385    0.46834    0.44340   1.00
C3a      1.20713    0.51744    0.52983   1.00
H1       1.22202    0.52970    0.55480   1.00
C3b      1.20922    0.48218    0.46849   1.00
C4       1.22900    0.50003    0.49958   1.00
O3       1.27167    0.43546    0.52982   1.00
C5       1.13720    0.56462    0.56565   1.00
H2       1.16391    0.58321    0.56385   1.00
C5       1.11674    0.57189    0.60448   1.00
H2       1.11726    0.57264    0.54123   1.00
H2       1.13932    0.57416    0.62774   1.00
H2       1.09907    0.54546    0.61127   1.00
C5       1.09082    0.60857    0.60403   1.00
H2       1.10824    0.63410    0.59421   1.00
C5       1.07453    0.61709    0.64502   1.00
H2       1.06507    0.60472    0.58435   1.00
C5       1.24017    0.40372    0.58252   1.00
H2       1.26215    0.37995    0.58543   1.00
H2       1.21952    0.39471    0.55908   1.00
C5       1.21800    0.40982    0.62112   1.00
C5       1.20225    0.37052    0.63611   1.00
H2       1.44286    0.65359    0.39217   1.00
H2       1.43447    0.63453    0.34201   1.00
H2       1.39323    0.65578    0.37023   1.00
H2       1.28105    0.31827    0.37111   1.00
H2       1.25551    0.35525    0.34062   1.00
H2       1.30293    0.36748    0.36409   1.00
H2       1.04387    0.62969    0.64237   1.00
H2       1.07344    0.58888    0.66259   1.00
H2       1.09423    0.63900    0.66044   1.00
H2       1.20634    0.34727    0.61268   1.00
H2       1.21884    0.36166    0.66354   1.00
H2       1.16990    0.37352    0.64322   1.00
C5       1.07721    0.11782    0.60056   1.00
H2       1.04993    0.10255    0.60904   1.00
H2       1.08319    0.13910    0.62427   1.00
C5       1.11072    0.08806    0.59741   1.00
C5       1.12768    0.07877    0.63796   1.00
H2       1.13434    0.09985    0.57849   1.00
O3       1.06271    0.27000    0.46710   1.00
C4       0.99958    0.22900    0.49997   1.00
C3c      1.01520    0.20757    0.53121   1.00
H1       1.02747    0.22275    0.55599   1.00
C3d      0.98323    0.20865    0.46821   1.00
C3       1.01579    0.16646    0.53081   1.00
O2       1.02714    0.14752    0.56435   1.00
C3       0.98445    0.16773    0.46739   1.00
H1       0.97281    0.15343    0.44179   1.00
C2       1.00052    0.14561    0.49854   1.00
C5       1.06116    0.27121    0.42594   1.00
H2       1.06251    0.30162    0.41448   1.00
H2       1.03387    0.25734    0.41483   1.00
C5       1.09628    0.24871    0.41047   1.00
H2       1.09553    0.21863    0.42280   1.00
H2       1.12335    0.26302    0.42144   1.00
C5       1.09609    0.24738    0.36556   1.00
H2       1.09656    0.27732    0.35305   1.00
H2       1.06974    0.23189    0.35461   1.00
C5       1.13243    0.22555    0.35067   1.00
C5       0.93075    0.23895    0.44069   1.00
C5       1.06755    0.13930    0.56281   1.00
H2       0.92724    0.25912    0.46587   1.00
H2       0.91184    0.21288    0.44549   1.00
H2       1.08456    0.16700    0.56091   1.00
H2       1.07562    0.12105    0.53697   1.00
H2       1.10024    0.05970    0.58514   1.00
H2       0.88293    0.30753    0.42965   1.00
H2       0.85614    0.26237    0.42212   1.00
C2       1.00091    0.35395    0.49748   1.00
C3       0.96995    0.33403    0.51596   1.00
O2       0.93565    0.35326    0.52459   1.00
C3       1.03198    0.33174    0.48177   1.00
H1       1.05660    0.34615    0.46834   1.00
C3a      0.97017    0.29287    0.51744   1.00
H1       0.94520    0.27798    0.52970   1.00
C3b      1.03151    0.29078    0.48218   1.00
C4       1.00042    0.27100    0.50003   1.00
O3       0.97018    0.22833    0.43546   1.00
C5       0.93435    0.36280    0.56462   1.00
H2       0.93615    0.33609    0.58321   1.00
C5       0.89552    0.38326    0.57189   1.00
H2       0.95877    0.38274    0.57264   1.00
H2       0.87226    0.36068    0.57416   1.00
H2       0.88873    0.40093    0.54546   1.00
C5       0.89597    0.40918    0.60857   1.00
H2       0.90579    0.39176    0.63410   1.00
C5       0.85498    0.42547    0.61709   1.00
H2       0.91565    0.43493    0.60472   1.00
C5       0.91748    0.25983    0.40372   1.00
H2       0.91457    0.23785    0.37995   1.00
H2       0.94092    0.28048    0.39471   1.00
C5       0.87888    0.28200    0.40982   1.00
C5       0.86389    0.29775    0.37052   1.00
H2       1.10783    0.05714    0.65359   1.00
H2       1.15799    0.06553    0.63453   1.00
H2       1.12977    0.10677    0.65578   1.00
H2       1.12889    0.21895    0.31827   1.00
H2       1.15938    0.24449    0.35525   1.00
H2       1.13591    0.19707    0.36748   1.00
H2       0.85763    0.45613    0.62969   1.00
H2       0.83741    0.42656    0.58888   1.00
H2       0.83956    0.40577    0.63900   1.00
H2       0.88732    0.29366    0.34727   1.00
H2       0.83646    0.28116    0.36166   1.00
H2       0.85678    0.33010    0.37352   1.00
C5       1.10056    0.57721    0.11782   1.00
H2       1.10904    0.54993    0.10255   1.00
H2       1.12427    0.58319    0.13910   1.00
C5       1.09741    0.61072    0.08806   1.00
C5       1.13796    0.62768    0.07877   1.00
H2       1.07849    0.63434    0.09985   1.00
O3       0.96710    0.56271    0.27000   1.00
C4       0.99997    0.49958    0.22900   1.00
C3c      1.03121    0.51520    0.20757   1.00
H1       1.05599    0.52747    0.22275   1.00
C3d      0.96821    0.48323    0.20865   1.00
C3       1.03081    0.51579    0.16646   1.00
O2       1.06435    0.52714    0.14752   1.00
C3       0.96739    0.48445    0.16773   1.00
H1       0.94179    0.47281    0.15343   1.00
C2       0.99854    0.50052    0.14561   1.00
C5       0.92594    0.56116    0.27121   1.00
H2       0.91448    0.56251    0.30162   1.00
H2       0.91483    0.53387    0.25734   1.00
C5       0.91047    0.59628    0.24871   1.00
H2       0.92280    0.59553    0.21863   1.00
H2       0.92144    0.62335    0.26302   1.00
C5       0.86556    0.59609    0.24738   1.00
H2       0.85305    0.59656    0.27732   1.00
H2       0.85461    0.56974    0.23189   1.00
C5       0.85067    0.63243    0.22555   1.00
C5       0.94069    0.43075    0.23895   1.00
C5       1.06281    0.56755    0.13930   1.00
H2       0.96587    0.42724    0.25912   1.00
H2       0.94549    0.41184    0.21288   1.00
H2       1.06091    0.58456    0.16700   1.00
H2       1.03697    0.57562    0.12105   1.00
H2       1.08514    0.60024    0.05970   1.00
H2       0.92965    0.38293    0.30753   1.00
H2       0.92212    0.35614    0.26237   1.00
C2       0.99748    0.50091    0.35395   1.00
C3       1.01596    0.46995    0.33403   1.00
O2       1.02459    0.43565    0.35326   1.00
C3       0.98177    0.53198    0.33174   1.00
H1       0.96834    0.55660    0.34615   1.00
C3a      1.01744    0.47017    0.29287   1.00
H1       1.02970    0.44520    0.27798   1.00
C3b      0.98218    0.53151    0.29078   1.00
C4       1.00003    0.50042    0.27100   1.00
O3       0.93546    0.47018    0.22833   1.00
C5       1.06462    0.43435    0.36280   1.00
H2       1.08321    0.43615    0.33609   1.00
C5       1.07189    0.39552    0.38326   1.00
H2       1.07264    0.45877    0.38274   1.00
H2       1.07416    0.37226    0.36068   1.00
H2       1.04546    0.38873    0.40093   1.00
C5       1.10857    0.39597    0.40918   1.00
H2       1.13410    0.40579    0.39176   1.00
C5       1.11709    0.35498    0.42547   1.00
H2       1.10472    0.41565    0.43493   1.00
C5       0.90372    0.41748    0.25983   1.00
H2       0.87995    0.41457    0.23785   1.00
H2       0.89471    0.44092    0.28048   1.00
C5       0.90982    0.37888    0.28200   1.00
C5       0.87052    0.36389    0.29775   1.00
H2       1.15359    0.60783    0.05714   1.00
H2       1.13453    0.65799    0.06553   1.00
H2       1.15578    0.62977    0.10677   1.00
H2       0.81827    0.62889    0.21895   1.00
H2       0.85525    0.65938    0.24449   1.00
H2       0.86748    0.63591    0.19707   1.00
H2       1.12969    0.35763    0.45613   1.00
H2       1.08888    0.33741    0.42656   1.00
H2       1.13900    0.33956    0.40577   1.00
H2       0.84727    0.38732    0.29366   1.00
H2       0.86166    0.33646    0.28116   1.00
H2       0.87352    0.35678    0.33010   1.00
