data_IRMOF10_SG202_interpen_Ligand8lp_label_p.

_audit_creation_method             'generated by an auxiliary program of Tobunporous'

_symmetry_space_group_name_H-M     'P 1'
_symmetry_Int_Tables_number        1
_symmetry_cell_setting             triclinic

_cell_length_a                    34.2800
_cell_length_b                    34.2800
_cell_length_c                    34.2800
_cell_angle_alpha                 90.0000
_cell_angle_beta                  90.0000
_cell_angle_gamma                 90.0000

loop_
_atom_site_label
_atom_site_fract_x
_atom_site_fract_y
_atom_site_fract_z
_atom_site_occupancy
O1       0.75000    0.75000    0.75000   1.00
Zn1      0.71720    0.78280    0.78280   1.00
Zn1      0.78280    0.71720    0.78280   1.00
Zn1      0.78280    0.78280    0.71720   1.00
Zn1      0.71720    0.71720    0.71720   1.00
O2       0.72650    0.77350    0.83820   1.00
O2       0.72650    0.83820    0.77350   1.00
O2       0.66180    0.77350    0.77350   1.00
O2       0.77350    0.72650    0.83820   1.00
O2       0.83820    0.72650    0.77350   1.00
O2       0.77350    0.66180    0.77350   1.00
O2       0.77350    0.83820    0.72650   1.00
O2       0.83820    0.77350    0.72650   1.00
O2       0.77350    0.77350    0.66180   1.00
O2       0.66180    0.72650    0.72650   1.00
O2       0.72650    0.66180    0.72650   1.00
O2       0.72650    0.72650    0.66180   1.00
C1       0.75000    0.75000    0.85520   1.00
C1       0.75000    0.85520    0.75000   1.00
C1       0.64480    0.75000    0.75000   1.00
C1       0.85520    0.75000    0.75000   1.00
C1       0.75000    0.64480    0.75000   1.00
C1       0.75000    0.75000    0.64480   1.00
O1       0.25000    0.25000    0.75000   1.00
Zn1      0.21720    0.28280    0.78280   1.00
Zn1      0.28280    0.21720    0.78280   1.00
Zn1      0.28280    0.28280    0.71720   1.00
Zn1      0.21720    0.21720    0.71720   1.00
O2       0.22650    0.27350    0.83820   1.00
O2       0.22650    0.33820    0.77350   1.00
O2       0.16180    0.27350    0.77350   1.00
O2       0.27350    0.22650    0.83820   1.00
O2       0.33820    0.22650    0.77350   1.00
O2       0.27350    0.16180    0.77350   1.00
O2       0.27350    0.33820    0.72650   1.00
O2       0.33820    0.27350    0.72650   1.00
O2       0.27350    0.27350    0.66180   1.00
O2       0.16180    0.22650    0.72650   1.00
O2       0.22650    0.16180    0.72650   1.00
O2       0.22650    0.22650    0.66180   1.00
C1       0.25000    0.25000    0.85520   1.00
C1       0.25000    0.35520    0.75000   1.00
C1       0.14480    0.25000    0.75000   1.00
C1       0.35520    0.25000    0.75000   1.00
C1       0.25000    0.14480    0.75000   1.00
C1       0.25000    0.25000    0.64480   1.00
O1       0.25000    0.75000    0.25000   1.00
Zn1      0.21720    0.78280    0.28280   1.00
Zn1      0.28280    0.71720    0.28280   1.00
Zn1      0.28280    0.78280    0.21720   1.00
Zn1      0.21720    0.71720    0.21720   1.00
O2       0.22650    0.77350    0.33820   1.00
O2       0.22650    0.83820    0.27350   1.00
O2       0.16180    0.77350    0.27350   1.00
O2       0.27350    0.72650    0.33820   1.00
O2       0.33820    0.72650    0.27350   1.00
O2       0.27350    0.66180    0.27350   1.00
O2       0.27350    0.83820    0.22650   1.00
O2       0.33820    0.77350    0.22650   1.00
O2       0.27350    0.77350    0.16180   1.00
O2       0.16180    0.72650    0.22650   1.00
O2       0.22650    0.66180    0.22650   1.00
O2       0.22650    0.72650    0.16180   1.00
C1       0.25000    0.75000    0.35520   1.00
C1       0.25000    0.85520    0.25000   1.00
C1       0.14480    0.75000    0.25000   1.00
C1       0.35520    0.75000    0.25000   1.00
C1       0.25000    0.64480    0.25000   1.00
C1       0.25000    0.75000    0.14480   1.00
O1       0.75000    0.25000    0.25000   1.00
Zn1      0.71720    0.28280    0.28280   1.00
Zn1      0.78280    0.21720    0.28280   1.00
Zn1      0.78280    0.28280    0.21720   1.00
Zn1      0.71720    0.21720    0.21720   1.00
O2       0.72650    0.27350    0.33820   1.00
O2       0.72650    0.33820    0.27350   1.00
O2       0.66180    0.27350    0.27350   1.00
O2       0.77350    0.22650    0.33820   1.00
O2       0.83820    0.22650    0.27350   1.00
O2       0.77350    0.16180    0.27350   1.00
O2       0.77350    0.33820    0.22650   1.00
O2       0.83820    0.27350    0.22650   1.00
O2       0.77350    0.27350    0.16180   1.00
O2       0.66180    0.22650    0.22650   1.00
O2       0.72650    0.16180    0.22650   1.00
O2       0.72650    0.22650    0.16180   1.00
C1       0.75000    0.25000    0.35520   1.00
C1       0.75000    0.35520    0.25000   1.00
C1       0.64480    0.25000    0.25000   1.00
C1       0.85520    0.25000    0.25000   1.00
C1       0.75000    0.14480    0.25000   1.00
C1       0.75000    0.25000    0.14480   1.00
O1       0.25000    0.25000    0.25000   1.00
Zn1      0.28280    0.21720    0.21720   1.00
Zn1      0.21720    0.28280    0.21720   1.00
Zn1      0.21720    0.21720    0.28280   1.00
Zn1      0.28280    0.28280    0.28280   1.00
O2       0.27350    0.22650    0.16180   1.00
O2       0.27350    0.16180    0.22650   1.00
O2       0.33820    0.22650    0.22650   1.00
O2       0.22650    0.27350    0.16180   1.00
O2       0.16180    0.27350    0.22650   1.00
O2       0.22650    0.33820    0.22650   1.00
O2       0.22650    0.16180    0.27350   1.00
O2       0.16180    0.22650    0.27350   1.00
O2       0.22650    0.22650    0.33820   1.00
O2       0.33820    0.27350    0.27350   1.00
O2       0.27350    0.33820    0.27350   1.00
O2       0.27350    0.27350    0.33820   1.00
C1       0.25000    0.25000    0.14480   1.00
C1       0.25000    0.14480    0.25000   1.00
C1       0.35520    0.25000    0.25000   1.00
C1       0.14480    0.25000    0.25000   1.00
C1       0.25000    0.35520    0.25000   1.00
C1       0.25000    0.25000    0.35520   1.00
O1       0.75000    0.75000    0.25000   1.00
Zn1      0.78280    0.71720    0.21720   1.00
Zn1      0.71720    0.78280    0.21720   1.00
Zn1      0.71720    0.71720    0.28280   1.00
Zn1      0.78280    0.78280    0.28280   1.00
O2       0.77350    0.72650    0.16180   1.00
O2       0.77350    0.66180    0.22650   1.00
O2       0.83820    0.72650    0.22650   1.00
O2       0.72650    0.77350    0.16180   1.00
O2       0.66180    0.77350    0.22650   1.00
O2       0.72650    0.83820    0.22650   1.00
O2       0.72650    0.66180    0.27350   1.00
O2       0.66180    0.72650    0.27350   1.00
O2       0.72650    0.72650    0.33820   1.00
O2       0.83820    0.77350    0.27350   1.00
O2       0.77350    0.83820    0.27350   1.00
O2       0.77350    0.77350    0.33820   1.00
C1       0.75000    0.75000    0.14480   1.00
C1       0.75000    0.64480    0.25000   1.00
C1       0.85520    0.75000    0.25000   1.00
C1       0.64480    0.75000    0.25000   1.00
C1       0.75000    0.85520    0.25000   1.00
C1       0.75000    0.75000    0.35520   1.00
O1       0.75000    0.25000    0.75000   1.00
Zn1      0.78280    0.21720    0.71720   1.00
Zn1      0.71720    0.28280    0.71720   1.00
Zn1      0.71720    0.21720    0.78280   1.00
Zn1      0.78280    0.28280    0.78280   1.00
O2       0.77350    0.22650    0.66180   1.00
O2       0.77350    0.16180    0.72650   1.00
O2       0.83820    0.22650    0.72650   1.00
O2       0.72650    0.27350    0.66180   1.00
O2       0.66180    0.27350    0.72650   1.00
O2       0.72650    0.33820    0.72650   1.00
O2       0.72650    0.16180    0.77350   1.00
O2       0.66180    0.22650    0.77350   1.00
O2       0.72650    0.22650    0.83820   1.00
O2       0.83820    0.27350    0.77350   1.00
O2       0.77350    0.33820    0.77350   1.00
O2       0.77350    0.27350    0.83820   1.00
C1       0.75000    0.25000    0.64480   1.00
C1       0.75000    0.14480    0.75000   1.00
C1       0.85520    0.25000    0.75000   1.00
C1       0.64480    0.25000    0.75000   1.00
C1       0.75000    0.35520    0.75000   1.00
C1       0.75000    0.25000    0.85520   1.00
O1       0.25000    0.75000    0.75000   1.00
Zn1      0.28280    0.71720    0.71720   1.00
Zn1      0.21720    0.78280    0.71720   1.00
Zn1      0.21720    0.71720    0.78280   1.00
Zn1      0.28280    0.78280    0.78280   1.00
O2       0.27350    0.72650    0.66180   1.00
O2       0.27350    0.66180    0.72650   1.00
O2       0.33820    0.72650    0.72650   1.00
O2       0.22650    0.77350    0.66180   1.00
O2       0.16180    0.77350    0.72650   1.00
O2       0.22650    0.83820    0.72650   1.00
O2       0.22650    0.66180    0.77350   1.00
O2       0.16180    0.72650    0.77350   1.00
O2       0.22650    0.72650    0.83820   1.00
O2       0.33820    0.77350    0.77350   1.00
O2       0.27350    0.83820    0.77350   1.00
O2       0.27350    0.77350    0.83820   1.00
C1       0.25000    0.75000    0.64480   1.00
C1       0.25000    0.64480    0.75000   1.00
C1       0.35520    0.75000    0.75000   1.00
C1       0.14480    0.75000    0.75000   1.00
C1       0.25000    0.85520    0.75000   1.00
C1       0.25000    0.75000    0.85520   1.00
O1       1.00000    1.00000    1.00000   1.00
Zn1      0.96720    1.03280    1.03280   1.00
Zn1      1.03280    0.96720    1.03280   1.00
Zn1      1.03280    1.03280    0.96720   1.00
Zn1      0.96720    0.96720    0.96720   1.00
O2       0.97650    1.02350    1.08820   1.00
O2       0.97650    1.08820    1.02350   1.00
O2       0.91180    1.02350    1.02350   1.00
O2       1.02350    0.97650    1.08820   1.00
O2       1.08820    0.97650    1.02350   1.00
O2       1.02350    0.91180    1.02350   1.00
O2       1.02350    1.08820    0.97650   1.00
O2       1.08820    1.02350    0.97650   1.00
O2       1.02350    1.02350    0.91180   1.00
O2       0.91180    0.97650    0.97650   1.00
O2       0.97650    0.91180    0.97650   1.00
O2       0.97650    0.97650    0.91180   1.00
C1       1.00000    1.00000    1.10520   1.00
C1       1.00000    1.10520    1.00000   1.00
C1       0.89480    1.00000    1.00000   1.00
C1       1.10520    1.00000    1.00000   1.00
C1       1.00000    0.89480    1.00000   1.00
C1       1.00000    1.00000    0.89480   1.00
O1       0.50000    0.50000    1.00000   1.00
Zn1      0.46720    0.53280    1.03280   1.00
Zn1      0.53280    0.46720    1.03280   1.00
Zn1      0.53280    0.53280    0.96720   1.00
Zn1      0.46720    0.46720    0.96720   1.00
O2       0.47650    0.52350    1.08820   1.00
O2       0.47650    0.58820    1.02350   1.00
O2       0.41180    0.52350    1.02350   1.00
O2       0.52350    0.47650    1.08820   1.00
O2       0.58820    0.47650    1.02350   1.00
O2       0.52350    0.41180    1.02350   1.00
O2       0.52350    0.58820    0.97650   1.00
O2       0.58820    0.52350    0.97650   1.00
O2       0.52350    0.52350    0.91180   1.00
O2       0.41180    0.47650    0.97650   1.00
O2       0.47650    0.41180    0.97650   1.00
O2       0.47650    0.47650    0.91180   1.00
C1       0.50000    0.50000    1.10520   1.00
C1       0.50000    0.60520    1.00000   1.00
C1       0.39480    0.50000    1.00000   1.00
C1       0.60520    0.50000    1.00000   1.00
C1       0.50000    0.39480    1.00000   1.00
C1       0.50000    0.50000    0.89480   1.00
O1       0.50000    1.00000    0.50000   1.00
Zn1      0.46720    1.03280    0.53280   1.00
Zn1      0.53280    0.96720    0.53280   1.00
Zn1      0.53280    1.03280    0.46720   1.00
Zn1      0.46720    0.96720    0.46720   1.00
O2       0.47650    1.02350    0.58820   1.00
O2       0.47650    1.08820    0.52350   1.00
O2       0.41180    1.02350    0.52350   1.00
O2       0.52350    0.97650    0.58820   1.00
O2       0.58820    0.97650    0.52350   1.00
O2       0.52350    0.91180    0.52350   1.00
O2       0.52350    1.08820    0.47650   1.00
O2       0.58820    1.02350    0.47650   1.00
O2       0.52350    1.02350    0.41180   1.00
O2       0.41180    0.97650    0.47650   1.00
O2       0.47650    0.91180    0.47650   1.00
O2       0.47650    0.97650    0.41180   1.00
C1       0.50000    1.00000    0.60520   1.00
C1       0.50000    1.10520    0.50000   1.00
C1       0.39480    1.00000    0.50000   1.00
C1       0.60520    1.00000    0.50000   1.00
C1       0.50000    0.89480    0.50000   1.00
C1       0.50000    1.00000    0.39480   1.00
O1       1.00000    0.50000    0.50000   1.00
Zn1      0.96720    0.53280    0.53280   1.00
Zn1      1.03280    0.46720    0.53280   1.00
Zn1      1.03280    0.53280    0.46720   1.00
Zn1      0.96720    0.46720    0.46720   1.00
O2       0.97650    0.52350    0.58820   1.00
O2       0.97650    0.58820    0.52350   1.00
O2       0.91180    0.52350    0.52350   1.00
O2       1.02350    0.47650    0.58820   1.00
O2       1.08820    0.47650    0.52350   1.00
O2       1.02350    0.41180    0.52350   1.00
O2       1.02350    0.58820    0.47650   1.00
O2       1.08820    0.52350    0.47650   1.00
O2       1.02350    0.52350    0.41180   1.00
O2       0.91180    0.47650    0.47650   1.00
O2       0.97650    0.41180    0.47650   1.00
O2       0.97650    0.47650    0.41180   1.00
C1       1.00000    0.50000    0.60520   1.00
C1       1.00000    0.60520    0.50000   1.00
C1       0.89480    0.50000    0.50000   1.00
C1       1.10520    0.50000    0.50000   1.00
C1       1.00000    0.39480    0.50000   1.00
C1       1.00000    0.50000    0.39480   1.00
O1       0.50000    0.50000    0.50000   1.00
Zn1      0.53280    0.46720    0.46720   1.00
Zn1      0.46720    0.53280    0.46720   1.00
Zn1      0.46720    0.46720    0.53280   1.00
Zn1      0.53280    0.53280    0.53280   1.00
O2       0.52350    0.47650    0.41180   1.00
O2       0.52350    0.41180    0.47650   1.00
O2       0.58820    0.47650    0.47650   1.00
O2       0.47650    0.52350    0.41180   1.00
O2       0.41180    0.52350    0.47650   1.00
O2       0.47650    0.58820    0.47650   1.00
O2       0.47650    0.41180    0.52350   1.00
O2       0.41180    0.47650    0.52350   1.00
O2       0.47650    0.47650    0.58820   1.00
O2       0.58820    0.52350    0.52350   1.00
O2       0.52350    0.58820    0.52350   1.00
O2       0.52350    0.52350    0.58820   1.00
C1       0.50000    0.50000    0.39480   1.00
C1       0.50000    0.39480    0.50000   1.00
C1       0.60520    0.50000    0.50000   1.00
C1       0.39480    0.50000    0.50000   1.00
C1       0.50000    0.60520    0.50000   1.00
C1       0.50000    0.50000    0.60520   1.00
O1       1.00000    1.00000    0.50000   1.00
Zn1      1.03280    0.96720    0.46720   1.00
Zn1      0.96720    1.03280    0.46720   1.00
Zn1      0.96720    0.96720    0.53280   1.00
Zn1      1.03280    1.03280    0.53280   1.00
O2       1.02350    0.97650    0.41180   1.00
O2       1.02350    0.91180    0.47650   1.00
O2       1.08820    0.97650    0.47650   1.00
O2       0.97650    1.02350    0.41180   1.00
O2       0.91180    1.02350    0.47650   1.00
O2       0.97650    1.08820    0.47650   1.00
O2       0.97650    0.91180    0.52350   1.00
O2       0.91180    0.97650    0.52350   1.00
O2       0.97650    0.97650    0.58820   1.00
O2       1.08820    1.02350    0.52350   1.00
O2       1.02350    1.08820    0.52350   1.00
O2       1.02350    1.02350    0.58820   1.00
C1       1.00000    1.00000    0.39480   1.00
C1       1.00000    0.89480    0.50000   1.00
C1       1.10520    1.00000    0.50000   1.00
C1       0.89480    1.00000    0.50000   1.00
C1       1.00000    1.10520    0.50000   1.00
C1       1.00000    1.00000    0.60520   1.00
O1       1.00000    0.50000    1.00000   1.00
Zn1      1.03280    0.46720    0.96720   1.00
Zn1      0.96720    0.53280    0.96720   1.00
Zn1      0.96720    0.46720    1.03280   1.00
Zn1      1.03280    0.53280    1.03280   1.00
O2       1.02350    0.47650    0.91180   1.00
O2       1.02350    0.41180    0.97650   1.00
O2       1.08820    0.47650    0.97650   1.00
O2       0.97650    0.52350    0.91180   1.00
O2       0.91180    0.52350    0.97650   1.00
O2       0.97650    0.58820    0.97650   1.00
O2       0.97650    0.41180    1.02350   1.00
O2       0.91180    0.47650    1.02350   1.00
O2       0.97650    0.47650    1.08820   1.00
O2       1.08820    0.52350    1.02350   1.00
O2       1.02350    0.58820    1.02350   1.00
O2       1.02350    0.52350    1.08820   1.00
C1       1.00000    0.50000    0.89480   1.00
C1       1.00000    0.39480    1.00000   1.00
C1       1.10520    0.50000    1.00000   1.00
C1       0.89480    0.50000    1.00000   1.00
C1       1.00000    0.60520    1.00000   1.00
C1       1.00000    0.50000    1.10520   1.00
O1       0.50000    1.00000    1.00000   1.00
Zn1      0.53280    0.96720    0.96720   1.00
Zn1      0.46720    1.03280    0.96720   1.00
Zn1      0.46720    0.96720    1.03280   1.00
Zn1      0.53280    1.03280    1.03280   1.00
O2       0.52350    0.97650    0.91180   1.00
O2       0.52350    0.91180    0.97650   1.00
O2       0.58820    0.97650    0.97650   1.00
O2       0.47650    1.02350    0.91180   1.00
O2       0.41180    1.02350    0.97650   1.00
O2       0.47650    1.08820    0.97650   1.00
O2       0.47650    0.91180    1.02350   1.00
O2       0.41180    0.97650    1.02350   1.00
O2       0.47650    0.97650    1.08820   1.00
O2       0.58820    1.02350    1.02350   1.00
O2       0.52350    1.08820    1.02350   1.00
O2       0.52350    1.02350    1.08820   1.00
C1       0.50000    1.00000    0.89480   1.00
C1       0.50000    0.89480    1.00000   1.00
C1       0.60520    1.00000    1.00000   1.00
C1       0.39480    1.00000    1.00000   1.00
C1       0.50000    1.10520    1.00000   1.00
C1       0.50000    1.00000    1.10520   1.00
C4       0.74997    0.74991    0.97915   1.00
C4       0.75003    0.75009    1.02085   1.00
C3       0.76793    0.72011    0.95708   1.00
C3       0.71674    0.73863    1.04225   1.00
C3       0.73150    0.78020    0.95816   1.00
C3a      0.78376    0.76131    1.04263   1.00
C2       0.74952    0.75143    0.89483   1.00
C2       0.75017    0.74854    1.10517   1.00
C3       0.76769    0.72093    0.91566   1.00
C3       0.71688    0.73788    1.08359   1.00
C3       0.73144    0.78102    0.91680   1.00
C3       0.78333    0.76024    1.08415   1.00
H1       0.78222    0.69616    0.97192   1.00
H1       0.69055    0.72993    1.02685   1.00
H1       0.78181    0.69764    0.89968   1.00
H1       0.69080    0.72881    1.09895   1.00
H1       0.71744    0.80503    0.90179   1.00
H1       0.80897    0.76892    1.10043   1.00
C5       0.82043    0.77538    1.02239   1.00
H1       0.71793    0.80392    0.97401   1.00
H2       0.84474    0.77902    1.04354   1.00
H2       0.83013    0.75300    1.00103   1.00
N1       0.81355    0.81276    1.00292   1.00
C6       0.80192    0.84612    1.02012   1.00
C6       0.81805    0.82016    0.96460   1.00
C6       0.79860    0.87512    0.99243   1.00
C6       0.80884    0.85860    0.95711   1.00
H3       0.79593    0.84924    1.05099   1.00
H3       0.82703    0.79882    0.94309   1.00
H3       0.78973    0.90498    0.99741   1.00
H3       0.80949    0.87295    0.92903   1.00
C4       0.74991    0.97915    0.74997   1.00
C4       0.75009    1.02085    0.75003   1.00
C3       0.72011    0.95708    0.76793   1.00
C3       0.73863    1.04225    0.71674   1.00
C3       0.78020    0.95816    0.73150   1.00
C3a      0.76131    1.04263    0.78376   1.00
C2       0.75143    0.89483    0.74952   1.00
C2       0.74854    1.10517    0.75017   1.00
C3       0.72093    0.91566    0.76769   1.00
C3       0.73788    1.08359    0.71688   1.00
C3       0.78102    0.91680    0.73144   1.00
C3       0.76024    1.08415    0.78333   1.00
H1       0.69616    0.97192    0.78222   1.00
H1       0.72993    1.02685    0.69055   1.00
H1       0.69764    0.89968    0.78181   1.00
H1       0.72881    1.09895    0.69080   1.00
H1       0.80503    0.90179    0.71744   1.00
H1       0.76892    1.10043    0.80897   1.00
C5       0.77538    1.02239    0.82043   1.00
H1       0.80392    0.97401    0.71793   1.00
H2       0.77902    1.04354    0.84474   1.00
H2       0.75300    1.00103    0.83013   1.00
N1       0.81276    1.00292    0.81355   1.00
C6       0.84612    1.02012    0.80192   1.00
C6       0.82016    0.96460    0.81805   1.00
C6       0.87512    0.99243    0.79860   1.00
C6       0.85860    0.95711    0.80884   1.00
H3       0.84924    1.05099    0.79593   1.00
H3       0.79882    0.94309    0.82703   1.00
H3       0.90498    0.99741    0.78973   1.00
H3       0.87295    0.92903    0.80949   1.00
C4       0.52085    0.74997    0.75009   1.00
C4       0.47915    0.75003    0.74991   1.00
C3       0.54292    0.76793    0.77989   1.00
C3       0.45775    0.71674    0.76137   1.00
C3       0.54184    0.73150    0.71980   1.00
C3a      0.45737    0.78376    0.73869   1.00
C2       0.60517    0.74952    0.74857   1.00
C2       0.39483    0.75017    0.75146   1.00
C3       0.58434    0.76769    0.77907   1.00
C3       0.41641    0.71688    0.76212   1.00
C3       0.58320    0.73144    0.71898   1.00
C3       0.41585    0.78333    0.73976   1.00
H1       0.52808    0.78222    0.80384   1.00
H1       0.47315    0.69055    0.77007   1.00
H1       0.60032    0.78181    0.80236   1.00
H1       0.40105    0.69080    0.77119   1.00
H1       0.59821    0.71744    0.69497   1.00
H1       0.39957    0.80897    0.73108   1.00
C5       0.47761    0.82043    0.72462   1.00
H1       0.52599    0.71793    0.69608   1.00
H2       0.45646    0.84474    0.72098   1.00
H2       0.49897    0.83013    0.74700   1.00
N1       0.49708    0.81355    0.68724   1.00
C6       0.47988    0.80192    0.65388   1.00
C6       0.53540    0.81805    0.67984   1.00
C6       0.50757    0.79860    0.62488   1.00
C6       0.54289    0.80884    0.64140   1.00
H3       0.44901    0.79593    0.65076   1.00
H3       0.55691    0.82703    0.70118   1.00
H3       0.50259    0.78973    0.59502   1.00
H3       0.57097    0.80949    0.62705   1.00
C4       0.97915    0.74997    0.74991   1.00
C4       1.02085    0.75003    0.75009   1.00
C3       0.95708    0.76793    0.72011   1.00
C3       1.04225    0.71674    0.73863   1.00
C3       0.95816    0.73150    0.78020   1.00
C3a      1.04263    0.78376    0.76131   1.00
C2       0.89483    0.74952    0.75143   1.00
C2       1.10517    0.75017    0.74854   1.00
C3       0.91566    0.76769    0.72093   1.00
C3       1.08359    0.71688    0.73788   1.00
C3       0.91680    0.73144    0.78102   1.00
C3       1.08415    0.78333    0.76024   1.00
H1       0.97192    0.78222    0.69616   1.00
H1       1.02685    0.69055    0.72993   1.00
H1       0.89968    0.78181    0.69764   1.00
H1       1.09895    0.69080    0.72881   1.00
H1       0.90179    0.71744    0.80503   1.00
H1       1.10043    0.80897    0.76892   1.00
C5       1.02239    0.82043    0.77538   1.00
H1       0.97401    0.71793    0.80392   1.00
H2       1.04354    0.84474    0.77902   1.00
H2       1.00103    0.83013    0.75300   1.00
N1       1.00292    0.81355    0.81276   1.00
C6       1.02012    0.80192    0.84612   1.00
C6       0.96460    0.81805    0.82016   1.00
C6       0.99243    0.79860    0.87512   1.00
C6       0.95711    0.80884    0.85860   1.00
H3       1.05099    0.79593    0.84924   1.00
H3       0.94309    0.82703    0.79882   1.00
H3       0.99741    0.78973    0.90498   1.00
H3       0.92903    0.80949    0.87295   1.00
C4       0.75009    0.52085    0.74997   1.00
C4       0.74991    0.47915    0.75003   1.00
C3       0.77989    0.54292    0.76793   1.00
C3       0.76137    0.45775    0.71674   1.00
C3       0.71980    0.54184    0.73150   1.00
C3a      0.73869    0.45737    0.78376   1.00
C2       0.74857    0.60517    0.74952   1.00
C2       0.75146    0.39483    0.75017   1.00
C3       0.77907    0.58434    0.76769   1.00
C3       0.76212    0.41641    0.71688   1.00
C3       0.71898    0.58320    0.73144   1.00
C3       0.73976    0.41585    0.78333   1.00
H1       0.80384    0.52808    0.78222   1.00
H1       0.77007    0.47315    0.69055   1.00
H1       0.80236    0.60032    0.78181   1.00
H1       0.77119    0.40105    0.69080   1.00
H1       0.69497    0.59821    0.71744   1.00
H1       0.73108    0.39957    0.80897   1.00
C5       0.72462    0.47761    0.82043   1.00
H1       0.69608    0.52599    0.71793   1.00
H2       0.72098    0.45646    0.84474   1.00
H2       0.74700    0.49897    0.83013   1.00
N1       0.68724    0.49708    0.81355   1.00
C6       0.65388    0.47988    0.80192   1.00
C6       0.67984    0.53540    0.81805   1.00
C6       0.62488    0.50757    0.79860   1.00
C6       0.64140    0.54289    0.80884   1.00
H3       0.65076    0.44901    0.79593   1.00
H3       0.70118    0.55691    0.82703   1.00
H3       0.59502    0.50259    0.78973   1.00
H3       0.62705    0.57097    0.80949   1.00
C4       0.74997    0.75009    0.52085   1.00
C4       0.75003    0.74991    0.47915   1.00
C3       0.76793    0.77989    0.54292   1.00
C3       0.71674    0.76137    0.45775   1.00
C3       0.73150    0.71980    0.54184   1.00
C3a      0.78376    0.73869    0.45737   1.00
C2       0.74952    0.74857    0.60517   1.00
C2       0.75017    0.75146    0.39483   1.00
C3       0.76769    0.77907    0.58434   1.00
C3       0.71688    0.76212    0.41641   1.00
C3       0.73144    0.71898    0.58320   1.00
C3       0.78333    0.73976    0.41585   1.00
H1       0.78222    0.80384    0.52808   1.00
H1       0.69055    0.77007    0.47315   1.00
H1       0.78181    0.80236    0.60032   1.00
H1       0.69080    0.77119    0.40105   1.00
H1       0.71744    0.69497    0.59821   1.00
H1       0.80897    0.73108    0.39957   1.00
C5       0.82043    0.72462    0.47761   1.00
H1       0.71793    0.69608    0.52599   1.00
H2       0.84474    0.72098    0.45646   1.00
H2       0.83013    0.74700    0.49897   1.00
N1       0.81355    0.68724    0.49708   1.00
C6       0.80192    0.65388    0.47988   1.00
C6       0.81805    0.67984    0.53540   1.00
C6       0.79860    0.62488    0.50757   1.00
C6       0.80884    0.64140    0.54289   1.00
H3       0.79593    0.65076    0.44901   1.00
H3       0.82703    0.70118    0.55691   1.00
H3       0.78973    0.59502    0.50259   1.00
H3       0.80949    0.62705    0.57097   1.00
C4       0.24997    0.24991    0.97915   1.00
C4       0.25003    0.25009    1.02085   1.00
C3       0.26793    0.22011    0.95708   1.00
C3       0.21674    0.23863    1.04225   1.00
C3       0.23150    0.28020    0.95816   1.00
C3a      0.28376    0.26131    1.04263   1.00
C2       0.24952    0.25143    0.89483   1.00
C2       0.25017    0.24854    1.10517   1.00
C3       0.26769    0.22093    0.91566   1.00
C3       0.21688    0.23788    1.08359   1.00
C3       0.23144    0.28102    0.91680   1.00
C3       0.28333    0.26024    1.08415   1.00
H1       0.28222    0.19616    0.97192   1.00
H1       0.19055    0.22993    1.02685   1.00
H1       0.28181    0.19764    0.89968   1.00
H1       0.19080    0.22881    1.09895   1.00
H1       0.21744    0.30503    0.90179   1.00
H1       0.30897    0.26892    1.10043   1.00
C5       0.32043    0.27538    1.02239   1.00
H1       0.21793    0.30392    0.97401   1.00
H2       0.34474    0.27902    1.04354   1.00
H2       0.33013    0.25300    1.00103   1.00
N1       0.31355    0.31276    1.00292   1.00
C6       0.30192    0.34612    1.02012   1.00
C6       0.31805    0.32016    0.96460   1.00
C6       0.29860    0.37512    0.99243   1.00
C6       0.30884    0.35860    0.95711   1.00
H3       0.29593    0.34924    1.05099   1.00
H3       0.32703    0.29882    0.94309   1.00
H3       0.28973    0.40498    0.99741   1.00
H3       0.30949    0.37295    0.92903   1.00
C4       0.24991    0.47915    0.74997   1.00
C4       0.25009    0.52085    0.75003   1.00
C3       0.22011    0.45708    0.76793   1.00
C3       0.23863    0.54225    0.71674   1.00
C3       0.28020    0.45816    0.73150   1.00
C3a      0.26131    0.54263    0.78376   1.00
C2       0.25143    0.39483    0.74952   1.00
C2       0.24854    0.60517    0.75017   1.00
C3       0.22093    0.41566    0.76769   1.00
C3       0.23788    0.58359    0.71688   1.00
C3       0.28102    0.41680    0.73144   1.00
C3       0.26024    0.58415    0.78333   1.00
H1       0.19616    0.47192    0.78222   1.00
H1       0.22993    0.52685    0.69055   1.00
H1       0.19764    0.39968    0.78181   1.00
H1       0.22881    0.59895    0.69080   1.00
H1       0.30503    0.40179    0.71744   1.00
H1       0.26892    0.60043    0.80897   1.00
C5       0.27538    0.52239    0.82043   1.00
H1       0.30392    0.47401    0.71793   1.00
H2       0.27902    0.54354    0.84474   1.00
H2       0.25300    0.50103    0.83013   1.00
N1       0.31276    0.50292    0.81355   1.00
C6       0.34612    0.52012    0.80192   1.00
C6       0.32016    0.46460    0.81805   1.00
C6       0.37512    0.49243    0.79860   1.00
C6       0.35860    0.45711    0.80884   1.00
H3       0.34924    0.55099    0.79593   1.00
H3       0.29882    0.44309    0.82703   1.00
H3       0.40498    0.49741    0.78973   1.00
H3       0.37295    0.42903    0.80949   1.00
C4       0.02085    0.24997    0.75009   1.00
C4       -0.02085   0.25003    0.74991   1.00
C3       0.04292    0.26793    0.77989   1.00
C3       -0.04225   0.21674    0.76137   1.00
C3       0.04184    0.23150    0.71980   1.00
C3a      -0.04263   0.28376    0.73869   1.00
C2       0.10517    0.24952    0.74857   1.00
C2       -0.10517   0.25017    0.75146   1.00
C3       0.08434    0.26769    0.77907   1.00
C3       -0.08359   0.21688    0.76212   1.00
C3       0.08320    0.23144    0.71898   1.00
C3       -0.08415   0.28333    0.73976   1.00
H1       0.02808    0.28222    0.80384   1.00
H1       -0.02685   0.19055    0.77007   1.00
H1       0.10032    0.28181    0.80236   1.00
H1       -0.09895   0.19080    0.77119   1.00
H1       0.09821    0.21744    0.69497   1.00
H1       -0.10043   0.30897    0.73108   1.00
C5       -0.02239   0.32043    0.72462   1.00
H1       0.02599    0.21793    0.69608   1.00
H2       -0.04354   0.34474    0.72098   1.00
H2       -0.00103   0.33013    0.74700   1.00
N1       -0.00292   0.31355    0.68724   1.00
C6       -0.02012   0.30192    0.65388   1.00
C6       0.03540    0.31805    0.67984   1.00
C6       0.00757    0.29860    0.62488   1.00
C6       0.04289    0.30884    0.64140   1.00
H3       -0.05099   0.29593    0.65076   1.00
H3       0.05691    0.32703    0.70118   1.00
H3       0.00259    0.28973    0.59502   1.00
H3       0.07097    0.30949    0.62705   1.00
C4       0.47915    0.24997    0.74991   1.00
C4       0.52085    0.25003    0.75009   1.00
C3       0.45708    0.26793    0.72011   1.00
C3       0.54225    0.21674    0.73863   1.00
C3       0.45816    0.23150    0.78020   1.00
C3a      0.54263    0.28376    0.76131   1.00
C2       0.39483    0.24952    0.75143   1.00
C2       0.60517    0.25017    0.74854   1.00
C3       0.41566    0.26769    0.72093   1.00
C3       0.58359    0.21688    0.73788   1.00
C3       0.41680    0.23144    0.78102   1.00
C3       0.58415    0.28333    0.76024   1.00
H1       0.47192    0.28222    0.69616   1.00
H1       0.52685    0.19055    0.72993   1.00
H1       0.39968    0.28181    0.69764   1.00
H1       0.59895    0.19080    0.72881   1.00
H1       0.40179    0.21744    0.80503   1.00
H1       0.60043    0.30897    0.76892   1.00
C5       0.52239    0.32043    0.77538   1.00
H1       0.47401    0.21793    0.80392   1.00
H2       0.54354    0.34474    0.77902   1.00
H2       0.50103    0.33013    0.75300   1.00
N1       0.50292    0.31355    0.81276   1.00
C6       0.52012    0.30192    0.84612   1.00
C6       0.46460    0.31805    0.82016   1.00
C6       0.49243    0.29860    0.87512   1.00
C6       0.45711    0.30884    0.85860   1.00
H3       0.55099    0.29593    0.84924   1.00
H3       0.44309    0.32703    0.79882   1.00
H3       0.49741    0.28973    0.90498   1.00
H3       0.42903    0.30949    0.87295   1.00
C4       0.25009    0.02085    0.74997   1.00
C4       0.24991    -0.02085   0.75003   1.00
C3       0.27989    0.04292    0.76793   1.00
C3       0.26137    -0.04225   0.71674   1.00
C3       0.21980    0.04184    0.73150   1.00
C3a      0.23869    -0.04263   0.78376   1.00
C2       0.24857    0.10517    0.74952   1.00
C2       0.25146    -0.10517   0.75017   1.00
C3       0.27907    0.08434    0.76769   1.00
C3       0.26212    -0.08359   0.71688   1.00
C3       0.21898    0.08320    0.73144   1.00
C3       0.23976    -0.08415   0.78333   1.00
H1       0.30384    0.02808    0.78222   1.00
H1       0.27007    -0.02685   0.69055   1.00
H1       0.30236    0.10032    0.78181   1.00
H1       0.27119    -0.09895   0.69080   1.00
H1       0.19497    0.09821    0.71744   1.00
H1       0.23108    -0.10043   0.80897   1.00
C5       0.22462    -0.02239   0.82043   1.00
H1       0.19608    0.02599    0.71793   1.00
H2       0.22098    -0.04354   0.84474   1.00
H2       0.24700    -0.00103   0.83013   1.00
N1       0.18724    -0.00292   0.81355   1.00
C6       0.15388    -0.02012   0.80192   1.00
C6       0.17984    0.03540    0.81805   1.00
C6       0.12488    0.00757    0.79860   1.00
C6       0.14140    0.04289    0.80884   1.00
H3       0.15076    -0.05099   0.79593   1.00
H3       0.20118    0.05691    0.82703   1.00
H3       0.09502    0.00259    0.78973   1.00
H3       0.12705    0.07097    0.80949   1.00
C4       0.24997    0.25009    0.52085   1.00
C4       0.25003    0.24991    0.47915   1.00
C3       0.26793    0.27989    0.54292   1.00
C3       0.21674    0.26137    0.45775   1.00
C3       0.23150    0.21980    0.54184   1.00
C3a      0.28376    0.23869    0.45737   1.00
C2       0.24952    0.24857    0.60517   1.00
C2       0.25017    0.25146    0.39483   1.00
C3       0.26769    0.27907    0.58434   1.00
C3       0.21688    0.26212    0.41641   1.00
C3       0.23144    0.21898    0.58320   1.00
C3       0.28333    0.23976    0.41585   1.00
H1       0.28222    0.30384    0.52808   1.00
H1       0.19055    0.27007    0.47315   1.00
H1       0.28181    0.30236    0.60032   1.00
H1       0.19080    0.27119    0.40105   1.00
H1       0.21744    0.19497    0.59821   1.00
H1       0.30897    0.23108    0.39957   1.00
C5       0.32043    0.22462    0.47761   1.00
H1       0.21793    0.19608    0.52599   1.00
H2       0.34474    0.22098    0.45646   1.00
H2       0.33013    0.24700    0.49897   1.00
N1       0.31355    0.18724    0.49708   1.00
C6       0.30192    0.15388    0.47988   1.00
C6       0.31805    0.17984    0.53540   1.00
C6       0.29860    0.12488    0.50757   1.00
C6       0.30884    0.14140    0.54289   1.00
H3       0.29593    0.15076    0.44901   1.00
H3       0.32703    0.20118    0.55691   1.00
H3       0.28973    0.09502    0.50259   1.00
H3       0.30949    0.12705    0.57097   1.00
C4       0.24997    0.74991    0.47915   1.00
C4       0.25003    0.75009    0.52085   1.00
C3       0.26793    0.72011    0.45708   1.00
C3       0.21674    0.73863    0.54225   1.00
C3       0.23150    0.78020    0.45816   1.00
C3a      0.28376    0.76131    0.54263   1.00
C2       0.24952    0.75143    0.39483   1.00
C2       0.25017    0.74854    0.60517   1.00
C3       0.26769    0.72093    0.41566   1.00
C3       0.21688    0.73788    0.58359   1.00
C3       0.23144    0.78102    0.41680   1.00
C3       0.28333    0.76024    0.58415   1.00
H1       0.28222    0.69616    0.47192   1.00
H1       0.19055    0.72993    0.52685   1.00
H1       0.28181    0.69764    0.39968   1.00
H1       0.19080    0.72881    0.59895   1.00
H1       0.21744    0.80503    0.40179   1.00
H1       0.30897    0.76892    0.60043   1.00
C5       0.32043    0.77538    0.52239   1.00
H1       0.21793    0.80392    0.47401   1.00
H2       0.34474    0.77902    0.54354   1.00
H2       0.33013    0.75300    0.50103   1.00
N1       0.31355    0.81276    0.50292   1.00
C6       0.30192    0.84612    0.52012   1.00
C6       0.31805    0.82016    0.46460   1.00
C6       0.29860    0.87512    0.49243   1.00
C6       0.30884    0.85860    0.45711   1.00
H3       0.29593    0.84924    0.55099   1.00
H3       0.32703    0.79882    0.44309   1.00
H3       0.28973    0.90498    0.49741   1.00
H3       0.30949    0.87295    0.42903   1.00
C4       0.24991    0.97915    0.24997   1.00
C4       0.25009    1.02085    0.25003   1.00
C3       0.22011    0.95708    0.26793   1.00
C3       0.23863    1.04225    0.21674   1.00
C3       0.28020    0.95816    0.23150   1.00
C3a      0.26131    1.04263    0.28376   1.00
C2       0.25143    0.89483    0.24952   1.00
C2       0.24854    1.10517    0.25017   1.00
C3       0.22093    0.91566    0.26769   1.00
C3       0.23788    1.08359    0.21688   1.00
C3       0.28102    0.91680    0.23144   1.00
C3       0.26024    1.08415    0.28333   1.00
H1       0.19616    0.97192    0.28222   1.00
H1       0.22993    1.02685    0.19055   1.00
H1       0.19764    0.89968    0.28181   1.00
H1       0.22881    1.09895    0.19080   1.00
H1       0.30503    0.90179    0.21744   1.00
H1       0.26892    1.10043    0.30897   1.00
C5       0.27538    1.02239    0.32043   1.00
H1       0.30392    0.97401    0.21793   1.00
H2       0.27902    1.04354    0.34474   1.00
H2       0.25300    1.00103    0.33013   1.00
N1       0.31276    1.00292    0.31355   1.00
C6       0.34612    1.02012    0.30192   1.00
C6       0.32016    0.96460    0.31805   1.00
C6       0.37512    0.99243    0.29860   1.00
C6       0.35860    0.95711    0.30884   1.00
H3       0.34924    1.05099    0.29593   1.00
H3       0.29882    0.94309    0.32703   1.00
H3       0.40498    0.99741    0.28973   1.00
H3       0.37295    0.92903    0.30949   1.00
C4       0.02085    0.74997    0.25009   1.00
C4       -0.02085   0.75003    0.24991   1.00
C3       0.04292    0.76793    0.27989   1.00
C3       -0.04225   0.71674    0.26137   1.00
C3       0.04184    0.73150    0.21980   1.00
C3a      -0.04263   0.78376    0.23869   1.00
C2       0.10517    0.74952    0.24857   1.00
C2       -0.10517   0.75017    0.25146   1.00
C3       0.08434    0.76769    0.27907   1.00
C3       -0.08359   0.71688    0.26212   1.00
C3       0.08320    0.73144    0.21898   1.00
C3       -0.08415   0.78333    0.23976   1.00
H1       0.02808    0.78222    0.30384   1.00
H1       -0.02685   0.69055    0.27007   1.00
H1       0.10032    0.78181    0.30236   1.00
H1       -0.09895   0.69080    0.27119   1.00
H1       0.09821    0.71744    0.19497   1.00
H1       -0.10043   0.80897    0.23108   1.00
C5       -0.02239   0.82043    0.22462   1.00
H1       0.02599    0.71793    0.19608   1.00
H2       -0.04354   0.84474    0.22098   1.00
H2       -0.00103   0.83013    0.24700   1.00
N1       -0.00292   0.81355    0.18724   1.00
C6       -0.02012   0.80192    0.15388   1.00
C6       0.03540    0.81805    0.17984   1.00
C6       0.00757    0.79860    0.12488   1.00
C6       0.04289    0.80884    0.14140   1.00
H3       -0.05099   0.79593    0.15076   1.00
H3       0.05691    0.82703    0.20118   1.00
H3       0.00259    0.78973    0.09502   1.00
H3       0.07097    0.80949    0.12705   1.00
C4       0.47915    0.74997    0.24991   1.00
C4       0.52085    0.75003    0.25009   1.00
C3       0.45708    0.76793    0.22011   1.00
C3       0.54225    0.71674    0.23863   1.00
C3       0.45816    0.73150    0.28020   1.00
C3a      0.54263    0.78376    0.26131   1.00
C2       0.39483    0.74952    0.25143   1.00
C2       0.60517    0.75017    0.24854   1.00
C3       0.41566    0.76769    0.22093   1.00
C3       0.58359    0.71688    0.23788   1.00
C3       0.41680    0.73144    0.28102   1.00
C3       0.58415    0.78333    0.26024   1.00
H1       0.47192    0.78222    0.19616   1.00
H1       0.52685    0.69055    0.22993   1.00
H1       0.39968    0.78181    0.19764   1.00
H1       0.59895    0.69080    0.22881   1.00
H1       0.40179    0.71744    0.30503   1.00
H1       0.60043    0.80897    0.26892   1.00
C5       0.52239    0.82043    0.27538   1.00
H1       0.47401    0.71793    0.30392   1.00
H2       0.54354    0.84474    0.27902   1.00
H2       0.50103    0.83013    0.25300   1.00
N1       0.50292    0.81355    0.31276   1.00
C6       0.52012    0.80192    0.34612   1.00
C6       0.46460    0.81805    0.32016   1.00
C6       0.49243    0.79860    0.37512   1.00
C6       0.45711    0.80884    0.35860   1.00
H3       0.55099    0.79593    0.34924   1.00
H3       0.44309    0.82703    0.29882   1.00
H3       0.49741    0.78973    0.40498   1.00
H3       0.42903    0.80949    0.37295   1.00
C4       0.25009    0.52085    0.24997   1.00
C4       0.24991    0.47915    0.25003   1.00
C3       0.27989    0.54292    0.26793   1.00
C3       0.26137    0.45775    0.21674   1.00
C3       0.21980    0.54184    0.23150   1.00
C3a      0.23869    0.45737    0.28376   1.00
C2       0.24857    0.60517    0.24952   1.00
C2       0.25146    0.39483    0.25017   1.00
C3       0.27907    0.58434    0.26769   1.00
C3       0.26212    0.41641    0.21688   1.00
C3       0.21898    0.58320    0.23144   1.00
C3       0.23976    0.41585    0.28333   1.00
H1       0.30384    0.52808    0.28222   1.00
H1       0.27007    0.47315    0.19055   1.00
H1       0.30236    0.60032    0.28181   1.00
H1       0.27119    0.40105    0.19080   1.00
H1       0.19497    0.59821    0.21744   1.00
H1       0.23108    0.39957    0.30897   1.00
C5       0.22462    0.47761    0.32043   1.00
H1       0.19608    0.52599    0.21793   1.00
H2       0.22098    0.45646    0.34474   1.00
H2       0.24700    0.49897    0.33013   1.00
N1       0.18724    0.49708    0.31355   1.00
C6       0.15388    0.47988    0.30192   1.00
C6       0.17984    0.53540    0.31805   1.00
C6       0.12488    0.50757    0.29860   1.00
C6       0.14140    0.54289    0.30884   1.00
H3       0.15076    0.44901    0.29593   1.00
H3       0.20118    0.55691    0.32703   1.00
H3       0.09502    0.50259    0.28973   1.00
H3       0.12705    0.57097    0.30949   1.00
C4       0.24997    0.75009    0.02085   1.00
C4       0.25003    0.74991    -0.02085   1.00
C3       0.26793    0.77989    0.04292   1.00
C3       0.21674    0.76137    -0.04225   1.00
C3       0.23150    0.71980    0.04184   1.00
C3a      0.28376    0.73869    -0.04263   1.00
C2       0.24952    0.74857    0.10517   1.00
C2       0.25017    0.75146    -0.10517   1.00
C3       0.26769    0.77907    0.08434   1.00
C3       0.21688    0.76212    -0.08359   1.00
C3       0.23144    0.71898    0.08320   1.00
C3       0.28333    0.73976    -0.08415   1.00
H1       0.28222    0.80384    0.02808   1.00
H1       0.19055    0.77007    -0.02685   1.00
H1       0.28181    0.80236    0.10032   1.00
H1       0.19080    0.77119    -0.09895   1.00
H1       0.21744    0.69497    0.09821   1.00
H1       0.30897    0.73108    -0.10043   1.00
C5       0.32043    0.72462    -0.02239   1.00
H1       0.21793    0.69608    0.02599   1.00
H2       0.34474    0.72098    -0.04354   1.00
H2       0.33013    0.74700    -0.00103   1.00
N1       0.31355    0.68724    -0.00292   1.00
C6       0.30192    0.65388    -0.02012   1.00
C6       0.31805    0.67984    0.03540   1.00
C6       0.29860    0.62488    0.00757   1.00
C6       0.30884    0.64140    0.04289   1.00
H3       0.29593    0.65076    -0.05099   1.00
H3       0.32703    0.70118    0.05691   1.00
H3       0.28973    0.59502    0.00259   1.00
H3       0.30949    0.62705    0.07097   1.00
C4       0.74997    0.24991    0.47915   1.00
C4       0.75003    0.25009    0.52085   1.00
C3       0.76793    0.22011    0.45708   1.00
C3       0.71674    0.23863    0.54225   1.00
C3       0.73150    0.28020    0.45816   1.00
C3a      0.78376    0.26131    0.54263   1.00
C2       0.74952    0.25143    0.39483   1.00
C2       0.75017    0.24854    0.60517   1.00
C3       0.76769    0.22093    0.41566   1.00
C3       0.71688    0.23788    0.58359   1.00
C3       0.73144    0.28102    0.41680   1.00
C3       0.78333    0.26024    0.58415   1.00
H1       0.78222    0.19616    0.47192   1.00
H1       0.69055    0.22993    0.52685   1.00
H1       0.78181    0.19764    0.39968   1.00
H1       0.69080    0.22881    0.59895   1.00
H1       0.71744    0.30503    0.40179   1.00
H1       0.80897    0.26892    0.60043   1.00
C5       0.82043    0.27538    0.52239   1.00
H1       0.71793    0.30392    0.47401   1.00
H2       0.84474    0.27902    0.54354   1.00
H2       0.83013    0.25300    0.50103   1.00
N1       0.81355    0.31276    0.50292   1.00
C6       0.80192    0.34612    0.52012   1.00
C6       0.81805    0.32016    0.46460   1.00
C6       0.79860    0.37512    0.49243   1.00
C6       0.80884    0.35860    0.45711   1.00
H3       0.79593    0.34924    0.55099   1.00
H3       0.82703    0.29882    0.44309   1.00
H3       0.78973    0.40498    0.49741   1.00
H3       0.80949    0.37295    0.42903   1.00
C4       0.74991    0.47915    0.24997   1.00
C4       0.75009    0.52085    0.25003   1.00
C3       0.72011    0.45708    0.26793   1.00
C3       0.73863    0.54225    0.21674   1.00
C3       0.78020    0.45816    0.23150   1.00
C3a      0.76131    0.54263    0.28376   1.00
C2       0.75143    0.39483    0.24952   1.00
C2       0.74854    0.60517    0.25017   1.00
C3       0.72093    0.41566    0.26769   1.00
C3       0.73788    0.58359    0.21688   1.00
C3       0.78102    0.41680    0.23144   1.00
C3       0.76024    0.58415    0.28333   1.00
H1       0.69616    0.47192    0.28222   1.00
H1       0.72993    0.52685    0.19055   1.00
H1       0.69764    0.39968    0.28181   1.00
H1       0.72881    0.59895    0.19080   1.00
H1       0.80503    0.40179    0.21744   1.00
H1       0.76892    0.60043    0.30897   1.00
C5       0.77538    0.52239    0.32043   1.00
H1       0.80392    0.47401    0.21793   1.00
H2       0.77902    0.54354    0.34474   1.00
H2       0.75300    0.50103    0.33013   1.00
N1       0.81276    0.50292    0.31355   1.00
C6       0.84612    0.52012    0.30192   1.00
C6       0.82016    0.46460    0.31805   1.00
C6       0.87512    0.49243    0.29860   1.00
C6       0.85860    0.45711    0.30884   1.00
H3       0.84924    0.55099    0.29593   1.00
H3       0.79882    0.44309    0.32703   1.00
H3       0.90498    0.49741    0.28973   1.00
H3       0.87295    0.42903    0.30949   1.00
C4       0.52085    0.24997    0.25009   1.00
C4       0.47915    0.25003    0.24991   1.00
C3       0.54292    0.26793    0.27989   1.00
C3       0.45775    0.21674    0.26137   1.00
C3       0.54184    0.23150    0.21980   1.00
C3a      0.45737    0.28376    0.23869   1.00
C2       0.60517    0.24952    0.24857   1.00
C2       0.39483    0.25017    0.25146   1.00
C3       0.58434    0.26769    0.27907   1.00
C3       0.41641    0.21688    0.26212   1.00
C3       0.58320    0.23144    0.21898   1.00
C3       0.41585    0.28333    0.23976   1.00
H1       0.52808    0.28222    0.30384   1.00
H1       0.47315    0.19055    0.27007   1.00
H1       0.60032    0.28181    0.30236   1.00
H1       0.40105    0.19080    0.27119   1.00
H1       0.59821    0.21744    0.19497   1.00
H1       0.39957    0.30897    0.23108   1.00
C5       0.47761    0.32043    0.22462   1.00
H1       0.52599    0.21793    0.19608   1.00
H2       0.45646    0.34474    0.22098   1.00
H2       0.49897    0.33013    0.24700   1.00
N1       0.49708    0.31355    0.18724   1.00
C6       0.47988    0.30192    0.15388   1.00
C6       0.53540    0.31805    0.17984   1.00
C6       0.50757    0.29860    0.12488   1.00
C6       0.54289    0.30884    0.14140   1.00
H3       0.44901    0.29593    0.15076   1.00
H3       0.55691    0.32703    0.20118   1.00
H3       0.50259    0.28973    0.09502   1.00
H3       0.57097    0.30949    0.12705   1.00
C4       0.97915    0.24997    0.24991   1.00
C4       1.02085    0.25003    0.25009   1.00
C3       0.95708    0.26793    0.22011   1.00
C3       1.04225    0.21674    0.23863   1.00
C3       0.95816    0.23150    0.28020   1.00
C3a      1.04263    0.28376    0.26131   1.00
C2       0.89483    0.24952    0.25143   1.00
C2       1.10517    0.25017    0.24854   1.00
C3       0.91566    0.26769    0.22093   1.00
C3       1.08359    0.21688    0.23788   1.00
C3       0.91680    0.23144    0.28102   1.00
C3       1.08415    0.28333    0.26024   1.00
H1       0.97192    0.28222    0.19616   1.00
H1       1.02685    0.19055    0.22993   1.00
H1       0.89968    0.28181    0.19764   1.00
H1       1.09895    0.19080    0.22881   1.00
H1       0.90179    0.21744    0.30503   1.00
H1       1.10043    0.30897    0.26892   1.00
C5       1.02239    0.32043    0.27538   1.00
H1       0.97401    0.21793    0.30392   1.00
H2       1.04354    0.34474    0.27902   1.00
H2       1.00103    0.33013    0.25300   1.00
N1       1.00292    0.31355    0.31276   1.00
C6       1.02012    0.30192    0.34612   1.00
C6       0.96460    0.31805    0.32016   1.00
C6       0.99243    0.29860    0.37512   1.00
C6       0.95711    0.30884    0.35860   1.00
H3       1.05099    0.29593    0.34924   1.00
H3       0.94309    0.32703    0.29882   1.00
H3       0.99741    0.28973    0.40498   1.00
H3       0.92903    0.30949    0.37295   1.00
C4       0.75009    0.02085    0.24997   1.00
C4       0.74991    -0.02085   0.25003   1.00
C3       0.77989    0.04292    0.26793   1.00
C3       0.76137    -0.04225   0.21674   1.00
C3       0.71980    0.04184    0.23150   1.00
C3a      0.73869    -0.04263   0.28376   1.00
C2       0.74857    0.10517    0.24952   1.00
C2       0.75146    -0.10517   0.25017   1.00
C3       0.77907    0.08434    0.26769   1.00
C3       0.76212    -0.08359   0.21688   1.00
C3       0.71898    0.08320    0.23144   1.00
C3       0.73976    -0.08415   0.28333   1.00
H1       0.80384    0.02808    0.28222   1.00
H1       0.77007    -0.02685   0.19055   1.00
H1       0.80236    0.10032    0.28181   1.00
H1       0.77119    -0.09895   0.19080   1.00
H1       0.69497    0.09821    0.21744   1.00
H1       0.73108    -0.10043   0.30897   1.00
C5       0.72462    -0.02239   0.32043   1.00
H1       0.69608    0.02599    0.21793   1.00
H2       0.72098    -0.04354   0.34474   1.00
H2       0.74700    -0.00103   0.33013   1.00
N1       0.68724    -0.00292   0.31355   1.00
C6       0.65388    -0.02012   0.30192   1.00
C6       0.67984    0.03540    0.31805   1.00
C6       0.62488    0.00757    0.29860   1.00
C6       0.64140    0.04289    0.30884   1.00
H3       0.65076    -0.05099   0.29593   1.00
H3       0.70118    0.05691    0.32703   1.00
H3       0.59502    0.00259    0.28973   1.00
H3       0.62705    0.07097    0.30949   1.00
C4       0.74997    0.25009    0.02085   1.00
C4       0.75003    0.24991    -0.02085   1.00
C3       0.76793    0.27989    0.04292   1.00
C3       0.71674    0.26137    -0.04225   1.00
C3       0.73150    0.21980    0.04184   1.00
C3a      0.78376    0.23869    -0.04263   1.00
C2       0.74952    0.24857    0.10517   1.00
C2       0.75017    0.25146    -0.10517   1.00
C3       0.76769    0.27907    0.08434   1.00
C3       0.71688    0.26212    -0.08359   1.00
C3       0.73144    0.21898    0.08320   1.00
C3       0.78333    0.23976    -0.08415   1.00
H1       0.78222    0.30384    0.02808   1.00
H1       0.69055    0.27007    -0.02685   1.00
H1       0.78181    0.30236    0.10032   1.00
H1       0.69080    0.27119    -0.09895   1.00
H1       0.71744    0.19497    0.09821   1.00
H1       0.80897    0.23108    -0.10043   1.00
C5       0.82043    0.22462    -0.02239   1.00
H1       0.71793    0.19608    0.02599   1.00
H2       0.84474    0.22098    -0.04354   1.00
H2       0.83013    0.24700    -0.00103   1.00
N1       0.81355    0.18724    -0.00292   1.00
C6       0.80192    0.15388    -0.02012   1.00
C6       0.81805    0.17984    0.03540   1.00
C6       0.79860    0.12488    0.00757   1.00
C6       0.80884    0.14140    0.04289   1.00
H3       0.79593    0.15076    -0.05099   1.00
H3       0.82703    0.20118    0.05691   1.00
H3       0.78973    0.09502    0.00259   1.00
H3       0.80949    0.12705    0.07097   1.00
C4       0.99997    0.99991    1.22915   1.00
C4       1.00003    1.00009    1.27085   1.00
C3       1.01793    0.97011    1.20708   1.00
C3       0.96674    0.98863    1.29225   1.00
C3       0.98150    1.03020    1.20816   1.00
C3a      1.03376    1.01131    1.29263   1.00
C2       0.99952    1.00143    1.14483   1.00
C2       1.00017    0.99854    1.35517   1.00
C3       1.01769    0.97093    1.16566   1.00
C3       0.96688    0.98788    1.33359   1.00
C3       0.98144    1.03102    1.16680   1.00
C3       1.03333    1.01024    1.33415   1.00
H1       1.03222    0.94616    1.22192   1.00
H1       0.94055    0.97993    1.27685   1.00
H1       1.03181    0.94764    1.14968   1.00
H1       0.94080    0.97881    1.34895   1.00
H1       0.96744    1.05503    1.15179   1.00
H1       1.05897    1.01892    1.35043   1.00
C5       1.07043    1.02538    1.27239   1.00
H1       0.96793    1.05392    1.22401   1.00
H2       1.09474    1.02902    1.29354   1.00
H2       1.08013    1.00300    1.25103   1.00
N1       1.06355    1.06276    1.25292   1.00
C6       1.05192    1.09612    1.27012   1.00
C6       1.06805    1.07016    1.21460   1.00
C6       1.04860    1.12512    1.24243   1.00
C6       1.05884    1.10860    1.20711   1.00
H3       1.04593    1.09924    1.30099   1.00
H3       1.07703    1.04882    1.19309   1.00
H3       1.03973    1.15498    1.24741   1.00
H3       1.05949    1.12295    1.17903   1.00
C4       0.99991    1.22915    0.99997   1.00
C4       1.00009    1.27085    1.00003   1.00
C3       0.97011    1.20708    1.01793   1.00
C3       0.98863    1.29225    0.96674   1.00
C3       1.03020    1.20816    0.98150   1.00
C3a      1.01131    1.29263    1.03376   1.00
C2       1.00143    1.14483    0.99952   1.00
C2       0.99854    1.35517    1.00017   1.00
C3       0.97093    1.16566    1.01769   1.00
C3       0.98788    1.33359    0.96688   1.00
C3       1.03102    1.16680    0.98144   1.00
C3       1.01024    1.33415    1.03333   1.00
H1       0.94616    1.22192    1.03222   1.00
H1       0.97993    1.27685    0.94055   1.00
H1       0.94764    1.14968    1.03181   1.00
H1       0.97881    1.34895    0.94080   1.00
H1       1.05503    1.15179    0.96744   1.00
H1       1.01892    1.35043    1.05897   1.00
C5       1.02538    1.27239    1.07043   1.00
H1       1.05392    1.22401    0.96793   1.00
H2       1.02902    1.29354    1.09474   1.00
H2       1.00300    1.25103    1.08013   1.00
N1       1.06276    1.25292    1.06355   1.00
C6       1.09612    1.27012    1.05192   1.00
C6       1.07016    1.21460    1.06805   1.00
C6       1.12512    1.24243    1.04860   1.00
C6       1.10860    1.20711    1.05884   1.00
H3       1.09924    1.30099    1.04593   1.00
H3       1.04882    1.19309    1.07703   1.00
H3       1.15498    1.24741    1.03973   1.00
H3       1.12295    1.17903    1.05949   1.00
C4       0.77085    0.99997    1.00009   1.00
C4       0.72915    1.00003    0.99991   1.00
C3       0.79292    1.01793    1.02989   1.00
C3       0.70775    0.96674    1.01137   1.00
C3       0.79184    0.98150    0.96980   1.00
C3a      0.70737    1.03376    0.98869   1.00
C2       0.85517    0.99952    0.99857   1.00
C2       0.64483    1.00017    1.00146   1.00
C3       0.83434    1.01769    1.02907   1.00
C3       0.66641    0.96688    1.01212   1.00
C3       0.83320    0.98144    0.96898   1.00
C3       0.66585    1.03333    0.98976   1.00
H1       0.77808    1.03222    1.05384   1.00
H1       0.72315    0.94055    1.02007   1.00
H1       0.85032    1.03181    1.05236   1.00
H1       0.65105    0.94080    1.02119   1.00
H1       0.84821    0.96744    0.94497   1.00
H1       0.64957    1.05897    0.98108   1.00
C5       0.72761    1.07043    0.97462   1.00
H1       0.77599    0.96793    0.94608   1.00
H2       0.70646    1.09474    0.97098   1.00
H2       0.74897    1.08013    0.99700   1.00
N1       0.74708    1.06355    0.93724   1.00
C6       0.72988    1.05192    0.90388   1.00
C6       0.78540    1.06805    0.92984   1.00
C6       0.75757    1.04860    0.87488   1.00
C6       0.79289    1.05884    0.89140   1.00
H3       0.69901    1.04593    0.90076   1.00
H3       0.80691    1.07703    0.95118   1.00
H3       0.75259    1.03973    0.84502   1.00
H3       0.82097    1.05949    0.87705   1.00
C4       1.22915    0.99997    0.99991   1.00
C4       1.27085    1.00003    1.00009   1.00
C3       1.20708    1.01793    0.97011   1.00
C3       1.29225    0.96674    0.98863   1.00
C3       1.20816    0.98150    1.03020   1.00
C3a      1.29263    1.03376    1.01131   1.00
C2       1.14483    0.99952    1.00143   1.00
C2       1.35517    1.00017    0.99854   1.00
C3       1.16566    1.01769    0.97093   1.00
C3       1.33359    0.96688    0.98788   1.00
C3       1.16680    0.98144    1.03102   1.00
C3       1.33415    1.03333    1.01024   1.00
H1       1.22192    1.03222    0.94616   1.00
H1       1.27685    0.94055    0.97993   1.00
H1       1.14968    1.03181    0.94764   1.00
H1       1.34895    0.94080    0.97881   1.00
H1       1.15179    0.96744    1.05503   1.00
H1       1.35043    1.05897    1.01892   1.00
C5       1.27239    1.07043    1.02538   1.00
H1       1.22401    0.96793    1.05392   1.00
H2       1.29354    1.09474    1.02902   1.00
H2       1.25103    1.08013    1.00300   1.00
N1       1.25292    1.06355    1.06276   1.00
C6       1.27012    1.05192    1.09612   1.00
C6       1.21460    1.06805    1.07016   1.00
C6       1.24243    1.04860    1.12512   1.00
C6       1.20711    1.05884    1.10860   1.00
H3       1.30099    1.04593    1.09924   1.00
H3       1.19309    1.07703    1.04882   1.00
H3       1.24741    1.03973    1.15498   1.00
H3       1.17903    1.05949    1.12295   1.00
C4       1.00009    0.77085    0.99997   1.00
C4       0.99991    0.72915    1.00003   1.00
C3       1.02989    0.79292    1.01793   1.00
C3       1.01137    0.70775    0.96674   1.00
C3       0.96980    0.79184    0.98150   1.00
C3a      0.98869    0.70737    1.03376   1.00
C2       0.99857    0.85517    0.99952   1.00
C2       1.00146    0.64483    1.00017   1.00
C3       1.02907    0.83434    1.01769   1.00
C3       1.01212    0.66641    0.96688   1.00
C3       0.96898    0.83320    0.98144   1.00
C3       0.98976    0.66585    1.03333   1.00
H1       1.05384    0.77808    1.03222   1.00
H1       1.02007    0.72315    0.94055   1.00
H1       1.05236    0.85032    1.03181   1.00
H1       1.02119    0.65105    0.94080   1.00
H1       0.94497    0.84821    0.96744   1.00
H1       0.98108    0.64957    1.05897   1.00
C5       0.97462    0.72761    1.07043   1.00
H1       0.94608    0.77599    0.96793   1.00
H2       0.97098    0.70646    1.09474   1.00
H2       0.99700    0.74897    1.08013   1.00
N1       0.93724    0.74708    1.06355   1.00
C6       0.90388    0.72988    1.05192   1.00
C6       0.92984    0.78540    1.06805   1.00
C6       0.87488    0.75757    1.04860   1.00
C6       0.89140    0.79289    1.05884   1.00
H3       0.90076    0.69901    1.04593   1.00
H3       0.95118    0.80691    1.07703   1.00
H3       0.84502    0.75259    1.03973   1.00
H3       0.87705    0.82097    1.05949   1.00
C4       0.99997    1.00009    0.77085   1.00
C4       1.00003    0.99991    0.72915   1.00
C3       1.01793    1.02989    0.79292   1.00
C3       0.96674    1.01137    0.70775   1.00
C3       0.98150    0.96980    0.79184   1.00
C3a      1.03376    0.98869    0.70737   1.00
C2       0.99952    0.99857    0.85517   1.00
C2       1.00017    1.00146    0.64483   1.00
C3       1.01769    1.02907    0.83434   1.00
C3       0.96688    1.01212    0.66641   1.00
C3       0.98144    0.96898    0.83320   1.00
C3       1.03333    0.98976    0.66585   1.00
H1       1.03222    1.05384    0.77808   1.00
H1       0.94055    1.02007    0.72315   1.00
H1       1.03181    1.05236    0.85032   1.00
H1       0.94080    1.02119    0.65105   1.00
H1       0.96744    0.94497    0.84821   1.00
H1       1.05897    0.98108    0.64957   1.00
C5       1.07043    0.97462    0.72761   1.00
H1       0.96793    0.94608    0.77599   1.00
H2       1.09474    0.97098    0.70646   1.00
H2       1.08013    0.99700    0.74897   1.00
N1       1.06355    0.93724    0.74708   1.00
C6       1.05192    0.90388    0.72988   1.00
C6       1.06805    0.92984    0.78540   1.00
C6       1.04860    0.87488    0.75757   1.00
C6       1.05884    0.89140    0.79289   1.00
H3       1.04593    0.90076    0.69901   1.00
H3       1.07703    0.95118    0.80691   1.00
H3       1.03973    0.84502    0.75259   1.00
H3       1.05949    0.87705    0.82097   1.00
C4       0.49997    0.49991    1.22915   1.00
C4       0.50003    0.50009    1.27085   1.00
C3       0.51793    0.47011    1.20708   1.00
C3       0.46674    0.48863    1.29225   1.00
C3       0.48150    0.53020    1.20816   1.00
C3a      0.53376    0.51131    1.29263   1.00
C2       0.49952    0.50143    1.14483   1.00
C2       0.50017    0.49854    1.35517   1.00
C3       0.51769    0.47093    1.16566   1.00
C3       0.46688    0.48788    1.33359   1.00
C3       0.48144    0.53102    1.16680   1.00
C3       0.53333    0.51024    1.33415   1.00
H1       0.53222    0.44616    1.22192   1.00
H1       0.44055    0.47993    1.27685   1.00
H1       0.53181    0.44764    1.14968   1.00
H1       0.44080    0.47881    1.34895   1.00
H1       0.46744    0.55503    1.15179   1.00
H1       0.55897    0.51892    1.35043   1.00
C5       0.57043    0.52538    1.27239   1.00
H1       0.46793    0.55392    1.22401   1.00
H2       0.59474    0.52902    1.29354   1.00
H2       0.58013    0.50300    1.25103   1.00
N1       0.56355    0.56276    1.25292   1.00
C6       0.55192    0.59612    1.27012   1.00
C6       0.56805    0.57016    1.21460   1.00
C6       0.54860    0.62512    1.24243   1.00
C6       0.55884    0.60860    1.20711   1.00
H3       0.54593    0.59924    1.30099   1.00
H3       0.57703    0.54882    1.19309   1.00
H3       0.53973    0.65498    1.24741   1.00
H3       0.55949    0.62295    1.17903   1.00
C4       0.49991    0.72915    0.99997   1.00
C4       0.50009    0.77085    1.00003   1.00
C3       0.47011    0.70708    1.01793   1.00
C3       0.48863    0.79225    0.96674   1.00
C3       0.53020    0.70816    0.98150   1.00
C3a      0.51131    0.79263    1.03376   1.00
C2       0.50143    0.64483    0.99952   1.00
C2       0.49854    0.85517    1.00017   1.00
C3       0.47093    0.66566    1.01769   1.00
C3       0.48788    0.83359    0.96688   1.00
C3       0.53102    0.66680    0.98144   1.00
C3       0.51024    0.83415    1.03333   1.00
H1       0.44616    0.72192    1.03222   1.00
H1       0.47993    0.77685    0.94055   1.00
H1       0.44764    0.64968    1.03181   1.00
H1       0.47881    0.84895    0.94080   1.00
H1       0.55503    0.65179    0.96744   1.00
H1       0.51892    0.85043    1.05897   1.00
C5       0.52538    0.77239    1.07043   1.00
H1       0.55392    0.72401    0.96793   1.00
H2       0.52902    0.79354    1.09474   1.00
H2       0.50300    0.75103    1.08013   1.00
N1       0.56276    0.75292    1.06355   1.00
C6       0.59612    0.77012    1.05192   1.00
C6       0.57016    0.71460    1.06805   1.00
C6       0.62512    0.74243    1.04860   1.00
C6       0.60860    0.70711    1.05884   1.00
H3       0.59924    0.80099    1.04593   1.00
H3       0.54882    0.69309    1.07703   1.00
H3       0.65498    0.74741    1.03973   1.00
H3       0.62295    0.67903    1.05949   1.00
C4       0.27085    0.49997    1.00009   1.00
C4       0.22915    0.50003    0.99991   1.00
C3       0.29292    0.51793    1.02989   1.00
C3       0.20775    0.46674    1.01137   1.00
C3       0.29184    0.48150    0.96980   1.00
C3a      0.20737    0.53376    0.98869   1.00
C2       0.35517    0.49952    0.99857   1.00
C2       0.14483    0.50017    1.00146   1.00
C3       0.33434    0.51769    1.02907   1.00
C3       0.16641    0.46688    1.01212   1.00
C3       0.33320    0.48144    0.96898   1.00
C3       0.16585    0.53333    0.98976   1.00
H1       0.27808    0.53222    1.05384   1.00
H1       0.22315    0.44055    1.02007   1.00
H1       0.35032    0.53181    1.05236   1.00
H1       0.15105    0.44080    1.02119   1.00
H1       0.34821    0.46744    0.94497   1.00
H1       0.14957    0.55897    0.98108   1.00
C5       0.22761    0.57043    0.97462   1.00
H1       0.27599    0.46793    0.94608   1.00
H2       0.20646    0.59474    0.97098   1.00
H2       0.24897    0.58013    0.99700   1.00
N1       0.24708    0.56355    0.93724   1.00
C6       0.22988    0.55192    0.90388   1.00
C6       0.28540    0.56805    0.92984   1.00
C6       0.25757    0.54860    0.87488   1.00
C6       0.29289    0.55884    0.89140   1.00
H3       0.19901    0.54593    0.90076   1.00
H3       0.30691    0.57703    0.95118   1.00
H3       0.25259    0.53973    0.84502   1.00
H3       0.32097    0.55949    0.87705   1.00
C4       0.72915    0.49997    0.99991   1.00
C4       0.77085    0.50003    1.00009   1.00
C3       0.70708    0.51793    0.97011   1.00
C3       0.79225    0.46674    0.98863   1.00
C3       0.70816    0.48150    1.03020   1.00
C3a      0.79263    0.53376    1.01131   1.00
C2       0.64483    0.49952    1.00143   1.00
C2       0.85517    0.50017    0.99854   1.00
C3       0.66566    0.51769    0.97093   1.00
C3       0.83359    0.46688    0.98788   1.00
C3       0.66680    0.48144    1.03102   1.00
C3       0.83415    0.53333    1.01024   1.00
H1       0.72192    0.53222    0.94616   1.00
H1       0.77685    0.44055    0.97993   1.00
H1       0.64968    0.53181    0.94764   1.00
H1       0.84895    0.44080    0.97881   1.00
H1       0.65179    0.46744    1.05503   1.00
H1       0.85043    0.55897    1.01892   1.00
C5       0.77239    0.57043    1.02538   1.00
H1       0.72401    0.46793    1.05392   1.00
H2       0.79354    0.59474    1.02902   1.00
H2       0.75103    0.58013    1.00300   1.00
N1       0.75292    0.56355    1.06276   1.00
C6       0.77012    0.55192    1.09612   1.00
C6       0.71460    0.56805    1.07016   1.00
C6       0.74243    0.54860    1.12512   1.00
C6       0.70711    0.55884    1.10860   1.00
H3       0.80099    0.54593    1.09924   1.00
H3       0.69309    0.57703    1.04882   1.00
H3       0.74741    0.53973    1.15498   1.00
H3       0.67903    0.55949    1.12295   1.00
C4       0.50009    0.27085    0.99997   1.00
C4       0.49991    0.22915    1.00003   1.00
C3       0.52989    0.29292    1.01793   1.00
C3       0.51137    0.20775    0.96674   1.00
C3       0.46980    0.29184    0.98150   1.00
C3a      0.48869    0.20737    1.03376   1.00
C2       0.49857    0.35517    0.99952   1.00
C2       0.50146    0.14483    1.00017   1.00
C3       0.52907    0.33434    1.01769   1.00
C3       0.51212    0.16641    0.96688   1.00
C3       0.46898    0.33320    0.98144   1.00
C3       0.48976    0.16585    1.03333   1.00
H1       0.55384    0.27808    1.03222   1.00
H1       0.52007    0.22315    0.94055   1.00
H1       0.55236    0.35032    1.03181   1.00
H1       0.52119    0.15105    0.94080   1.00
H1       0.44497    0.34821    0.96744   1.00
H1       0.48108    0.14957    1.05897   1.00
C5       0.47462    0.22761    1.07043   1.00
H1       0.44608    0.27599    0.96793   1.00
H2       0.47098    0.20646    1.09474   1.00
H2       0.49700    0.24897    1.08013   1.00
N1       0.43724    0.24708    1.06355   1.00
C6       0.40388    0.22988    1.05192   1.00
C6       0.42984    0.28540    1.06805   1.00
C6       0.37488    0.25757    1.04860   1.00
C6       0.39140    0.29289    1.05884   1.00
H3       0.40076    0.19901    1.04593   1.00
H3       0.45118    0.30691    1.07703   1.00
H3       0.34502    0.25259    1.03973   1.00
H3       0.37705    0.32097    1.05949   1.00
C4       0.49997    0.50009    0.77085   1.00
C4       0.50003    0.49991    0.72915   1.00
C3       0.51793    0.52989    0.79292   1.00
C3       0.46674    0.51137    0.70775   1.00
C3       0.48150    0.46980    0.79184   1.00
C3a      0.53376    0.48869    0.70737   1.00
C2       0.49952    0.49857    0.85517   1.00
C2       0.50017    0.50146    0.64483   1.00
C3       0.51769    0.52907    0.83434   1.00
C3       0.46688    0.51212    0.66641   1.00
C3       0.48144    0.46898    0.83320   1.00
C3       0.53333    0.48976    0.66585   1.00
H1       0.53222    0.55384    0.77808   1.00
H1       0.44055    0.52007    0.72315   1.00
H1       0.53181    0.55236    0.85032   1.00
H1       0.44080    0.52119    0.65105   1.00
H1       0.46744    0.44497    0.84821   1.00
H1       0.55897    0.48108    0.64957   1.00
C5       0.57043    0.47462    0.72761   1.00
H1       0.46793    0.44608    0.77599   1.00
H2       0.59474    0.47098    0.70646   1.00
H2       0.58013    0.49700    0.74897   1.00
N1       0.56355    0.43724    0.74708   1.00
C6       0.55192    0.40388    0.72988   1.00
C6       0.56805    0.42984    0.78540   1.00
C6       0.54860    0.37488    0.75757   1.00
C6       0.55884    0.39140    0.79289   1.00
H3       0.54593    0.40076    0.69901   1.00
H3       0.57703    0.45118    0.80691   1.00
H3       0.53973    0.34502    0.75259   1.00
H3       0.55949    0.37705    0.82097   1.00
C4       0.49997    0.99991    0.72915   1.00
C4       0.50003    1.00009    0.77085   1.00
C3       0.51793    0.97011    0.70708   1.00
C3       0.46674    0.98863    0.79225   1.00
C3       0.48150    1.03020    0.70816   1.00
C3a      0.53376    1.01131    0.79263   1.00
C2       0.49952    1.00143    0.64483   1.00
C2       0.50017    0.99854    0.85517   1.00
C3       0.51769    0.97093    0.66566   1.00
C3       0.46688    0.98788    0.83359   1.00
C3       0.48144    1.03102    0.66680   1.00
C3       0.53333    1.01024    0.83415   1.00
H1       0.53222    0.94616    0.72192   1.00
H1       0.44055    0.97993    0.77685   1.00
H1       0.53181    0.94764    0.64968   1.00
H1       0.44080    0.97881    0.84895   1.00
H1       0.46744    1.05503    0.65179   1.00
H1       0.55897    1.01892    0.85043   1.00
C5       0.57043    1.02538    0.77239   1.00
H1       0.46793    1.05392    0.72401   1.00
H2       0.59474    1.02902    0.79354   1.00
H2       0.58013    1.00300    0.75103   1.00
N1       0.56355    1.06276    0.75292   1.00
C6       0.55192    1.09612    0.77012   1.00
C6       0.56805    1.07016    0.71460   1.00
C6       0.54860    1.12512    0.74243   1.00
C6       0.55884    1.10860    0.70711   1.00
H3       0.54593    1.09924    0.80099   1.00
H3       0.57703    1.04882    0.69309   1.00
H3       0.53973    1.15498    0.74741   1.00
H3       0.55949    1.12295    0.67903   1.00
C4       0.49991    1.22915    0.49997   1.00
C4       0.50009    1.27085    0.50003   1.00
C3       0.47011    1.20708    0.51793   1.00
C3       0.48863    1.29225    0.46674   1.00
C3       0.53020    1.20816    0.48150   1.00
C3a      0.51131    1.29263    0.53376   1.00
C2       0.50143    1.14483    0.49952   1.00
C2       0.49854    1.35517    0.50017   1.00
C3       0.47093    1.16566    0.51769   1.00
C3       0.48788    1.33359    0.46688   1.00
C3       0.53102    1.16680    0.48144   1.00
C3       0.51024    1.33415    0.53333   1.00
H1       0.44616    1.22192    0.53222   1.00
H1       0.47993    1.27685    0.44055   1.00
H1       0.44764    1.14968    0.53181   1.00
H1       0.47881    1.34895    0.44080   1.00
H1       0.55503    1.15179    0.46744   1.00
H1       0.51892    1.35043    0.55897   1.00
C5       0.52538    1.27239    0.57043   1.00
H1       0.55392    1.22401    0.46793   1.00
H2       0.52902    1.29354    0.59474   1.00
H2       0.50300    1.25103    0.58013   1.00
N1       0.56276    1.25292    0.56355   1.00
C6       0.59612    1.27012    0.55192   1.00
C6       0.57016    1.21460    0.56805   1.00
C6       0.62512    1.24243    0.54860   1.00
C6       0.60860    1.20711    0.55884   1.00
H3       0.59924    1.30099    0.54593   1.00
H3       0.54882    1.19309    0.57703   1.00
H3       0.65498    1.24741    0.53973   1.00
H3       0.62295    1.17903    0.55949   1.00
C4       0.27085    0.99997    0.50009   1.00
C4       0.22915    1.00003    0.49991   1.00
C3       0.29292    1.01793    0.52989   1.00
C3       0.20775    0.96674    0.51137   1.00
C3       0.29184    0.98150    0.46980   1.00
C3a      0.20737    1.03376    0.48869   1.00
C2       0.35517    0.99952    0.49857   1.00
C2       0.14483    1.00017    0.50146   1.00
C3       0.33434    1.01769    0.52907   1.00
C3       0.16641    0.96688    0.51212   1.00
C3       0.33320    0.98144    0.46898   1.00
C3       0.16585    1.03333    0.48976   1.00
H1       0.27808    1.03222    0.55384   1.00
H1       0.22315    0.94055    0.52007   1.00
H1       0.35032    1.03181    0.55236   1.00
H1       0.15105    0.94080    0.52119   1.00
H1       0.34821    0.96744    0.44497   1.00
H1       0.14957    1.05897    0.48108   1.00
C5       0.22761    1.07043    0.47462   1.00
H1       0.27599    0.96793    0.44608   1.00
H2       0.20646    1.09474    0.47098   1.00
H2       0.24897    1.08013    0.49700   1.00
N1       0.24708    1.06355    0.43724   1.00
C6       0.22988    1.05192    0.40388   1.00
C6       0.28540    1.06805    0.42984   1.00
C6       0.25757    1.04860    0.37488   1.00
C6       0.29289    1.05884    0.39140   1.00
H3       0.19901    1.04593    0.40076   1.00
H3       0.30691    1.07703    0.45118   1.00
H3       0.25259    1.03973    0.34502   1.00
H3       0.32097    1.05949    0.37705   1.00
C4       0.72915    0.99997    0.49991   1.00
C4       0.77085    1.00003    0.50009   1.00
C3       0.70708    1.01793    0.47011   1.00
C3       0.79225    0.96674    0.48863   1.00
C3       0.70816    0.98150    0.53020   1.00
C3a      0.79263    1.03376    0.51131   1.00
C2       0.64483    0.99952    0.50143   1.00
C2       0.85517    1.00017    0.49854   1.00
C3       0.66566    1.01769    0.47093   1.00
C3       0.83359    0.96688    0.48788   1.00
C3       0.66680    0.98144    0.53102   1.00
C3       0.83415    1.03333    0.51024   1.00
H1       0.72192    1.03222    0.44616   1.00
H1       0.77685    0.94055    0.47993   1.00
H1       0.64968    1.03181    0.44764   1.00
H1       0.84895    0.94080    0.47881   1.00
H1       0.65179    0.96744    0.55503   1.00
H1       0.85043    1.05897    0.51892   1.00
C5       0.77239    1.07043    0.52538   1.00
H1       0.72401    0.96793    0.55392   1.00
H2       0.79354    1.09474    0.52902   1.00
H2       0.75103    1.08013    0.50300   1.00
N1       0.75292    1.06355    0.56276   1.00
C6       0.77012    1.05192    0.59612   1.00
C6       0.71460    1.06805    0.57016   1.00
C6       0.74243    1.04860    0.62512   1.00
C6       0.70711    1.05884    0.60860   1.00
H3       0.80099    1.04593    0.59924   1.00
H3       0.69309    1.07703    0.54882   1.00
H3       0.74741    1.03973    0.65498   1.00
H3       0.67903    1.05949    0.62295   1.00
C4       0.50009    0.77085    0.49997   1.00
C4       0.49991    0.72915    0.50003   1.00
C3       0.52989    0.79292    0.51793   1.00
C3       0.51137    0.70775    0.46674   1.00
C3       0.46980    0.79184    0.48150   1.00
C3a      0.48869    0.70737    0.53376   1.00
C2       0.49857    0.85517    0.49952   1.00
C2       0.50146    0.64483    0.50017   1.00
C3       0.52907    0.83434    0.51769   1.00
C3       0.51212    0.66641    0.46688   1.00
C3       0.46898    0.83320    0.48144   1.00
C3       0.48976    0.66585    0.53333   1.00
H1       0.55384    0.77808    0.53222   1.00
H1       0.52007    0.72315    0.44055   1.00
H1       0.55236    0.85032    0.53181   1.00
H1       0.52119    0.65105    0.44080   1.00
H1       0.44497    0.84821    0.46744   1.00
H1       0.48108    0.64957    0.55897   1.00
C5       0.47462    0.72761    0.57043   1.00
H1       0.44608    0.77599    0.46793   1.00
H2       0.47098    0.70646    0.59474   1.00
H2       0.49700    0.74897    0.58013   1.00
N1       0.43724    0.74708    0.56355   1.00
C6       0.40388    0.72988    0.55192   1.00
C6       0.42984    0.78540    0.56805   1.00
C6       0.37488    0.75757    0.54860   1.00
C6       0.39140    0.79289    0.55884   1.00
H3       0.40076    0.69901    0.54593   1.00
H3       0.45118    0.80691    0.57703   1.00
H3       0.34502    0.75259    0.53973   1.00
H3       0.37705    0.82097    0.55949   1.00
C4       0.49997    1.00009    0.27085   1.00
C4       0.50003    0.99991    0.22915   1.00
C3       0.51793    1.02989    0.29292   1.00
C3       0.46674    1.01137    0.20775   1.00
C3       0.48150    0.96980    0.29184   1.00
C3a      0.53376    0.98869    0.20737   1.00
C2       0.49952    0.99857    0.35517   1.00
C2       0.50017    1.00146    0.14483   1.00
C3       0.51769    1.02907    0.33434   1.00
C3       0.46688    1.01212    0.16641   1.00
C3       0.48144    0.96898    0.33320   1.00
C3       0.53333    0.98976    0.16585   1.00
H1       0.53222    1.05384    0.27808   1.00
H1       0.44055    1.02007    0.22315   1.00
H1       0.53181    1.05236    0.35032   1.00
H1       0.44080    1.02119    0.15105   1.00
H1       0.46744    0.94497    0.34821   1.00
H1       0.55897    0.98108    0.14957   1.00
C5       0.57043    0.97462    0.22761   1.00
H1       0.46793    0.94608    0.27599   1.00
H2       0.59474    0.97098    0.20646   1.00
H2       0.58013    0.99700    0.24897   1.00
N1       0.56355    0.93724    0.24708   1.00
C6       0.55192    0.90388    0.22988   1.00
C6       0.56805    0.92984    0.28540   1.00
C6       0.54860    0.87488    0.25757   1.00
C6       0.55884    0.89140    0.29289   1.00
H3       0.54593    0.90076    0.19901   1.00
H3       0.57703    0.95118    0.30691   1.00
H3       0.53973    0.84502    0.25259   1.00
H3       0.55949    0.87705    0.32097   1.00
C4       0.99997    0.49991    0.72915   1.00
C4       1.00003    0.50009    0.77085   1.00
C3       1.01793    0.47011    0.70708   1.00
C3       0.96674    0.48863    0.79225   1.00
C3       0.98150    0.53020    0.70816   1.00
C3a      1.03376    0.51131    0.79263   1.00
C2       0.99952    0.50143    0.64483   1.00
C2       1.00017    0.49854    0.85517   1.00
C3       1.01769    0.47093    0.66566   1.00
C3       0.96688    0.48788    0.83359   1.00
C3       0.98144    0.53102    0.66680   1.00
C3       1.03333    0.51024    0.83415   1.00
H1       1.03222    0.44616    0.72192   1.00
H1       0.94055    0.47993    0.77685   1.00
H1       1.03181    0.44764    0.64968   1.00
H1       0.94080    0.47881    0.84895   1.00
H1       0.96744    0.55503    0.65179   1.00
H1       1.05897    0.51892    0.85043   1.00
C5       1.07043    0.52538    0.77239   1.00
H1       0.96793    0.55392    0.72401   1.00
H2       1.09474    0.52902    0.79354   1.00
H2       1.08013    0.50300    0.75103   1.00
N1       1.06355    0.56276    0.75292   1.00
C6       1.05192    0.59612    0.77012   1.00
C6       1.06805    0.57016    0.71460   1.00
C6       1.04860    0.62512    0.74243   1.00
C6       1.05884    0.60860    0.70711   1.00
H3       1.04593    0.59924    0.80099   1.00
H3       1.07703    0.54882    0.69309   1.00
H3       1.03973    0.65498    0.74741   1.00
H3       1.05949    0.62295    0.67903   1.00
C4       0.99991    0.72915    0.49997   1.00
C4       1.00009    0.77085    0.50003   1.00
C3       0.97011    0.70708    0.51793   1.00
C3       0.98863    0.79225    0.46674   1.00
C3       1.03020    0.70816    0.48150   1.00
C3a      1.01131    0.79263    0.53376   1.00
C2       1.00143    0.64483    0.49952   1.00
C2       0.99854    0.85517    0.50017   1.00
C3       0.97093    0.66566    0.51769   1.00
C3       0.98788    0.83359    0.46688   1.00
C3       1.03102    0.66680    0.48144   1.00
C3       1.01024    0.83415    0.53333   1.00
H1       0.94616    0.72192    0.53222   1.00
H1       0.97993    0.77685    0.44055   1.00
H1       0.94764    0.64968    0.53181   1.00
H1       0.97881    0.84895    0.44080   1.00
H1       1.05503    0.65179    0.46744   1.00
H1       1.01892    0.85043    0.55897   1.00
C5       1.02538    0.77239    0.57043   1.00
H1       1.05392    0.72401    0.46793   1.00
H2       1.02902    0.79354    0.59474   1.00
H2       1.00300    0.75103    0.58013   1.00
N1       1.06276    0.75292    0.56355   1.00
C6       1.09612    0.77012    0.55192   1.00
C6       1.07016    0.71460    0.56805   1.00
C6       1.12512    0.74243    0.54860   1.00
C6       1.10860    0.70711    0.55884   1.00
H3       1.09924    0.80099    0.54593   1.00
H3       1.04882    0.69309    0.57703   1.00
H3       1.15498    0.74741    0.53973   1.00
H3       1.12295    0.67903    0.55949   1.00
C4       0.77085    0.49997    0.50009   1.00
C4       0.72915    0.50003    0.49991   1.00
C3       0.79292    0.51793    0.52989   1.00
C3       0.70775    0.46674    0.51137   1.00
C3       0.79184    0.48150    0.46980   1.00
C3a      0.70737    0.53376    0.48869   1.00
C2       0.85517    0.49952    0.49857   1.00
C2       0.64483    0.50017    0.50146   1.00
C3       0.83434    0.51769    0.52907   1.00
C3       0.66641    0.46688    0.51212   1.00
C3       0.83320    0.48144    0.46898   1.00
C3       0.66585    0.53333    0.48976   1.00
H1       0.77808    0.53222    0.55384   1.00
H1       0.72315    0.44055    0.52007   1.00
H1       0.85032    0.53181    0.55236   1.00
H1       0.65105    0.44080    0.52119   1.00
H1       0.84821    0.46744    0.44497   1.00
H1       0.64957    0.55897    0.48108   1.00
C5       0.72761    0.57043    0.47462   1.00
H1       0.77599    0.46793    0.44608   1.00
H2       0.70646    0.59474    0.47098   1.00
H2       0.74897    0.58013    0.49700   1.00
N1       0.74708    0.56355    0.43724   1.00
C6       0.72988    0.55192    0.40388   1.00
C6       0.78540    0.56805    0.42984   1.00
C6       0.75757    0.54860    0.37488   1.00
C6       0.79289    0.55884    0.39140   1.00
H3       0.69901    0.54593    0.40076   1.00
H3       0.80691    0.57703    0.45118   1.00
H3       0.75259    0.53973    0.34502   1.00
H3       0.82097    0.55949    0.37705   1.00
C4       1.22915    0.49997    0.49991   1.00
C4       1.27085    0.50003    0.50009   1.00
C3       1.20708    0.51793    0.47011   1.00
C3       1.29225    0.46674    0.48863   1.00
C3       1.20816    0.48150    0.53020   1.00
C3a      1.29263    0.53376    0.51131   1.00
C2       1.14483    0.49952    0.50143   1.00
C2       1.35517    0.50017    0.49854   1.00
C3       1.16566    0.51769    0.47093   1.00
C3       1.33359    0.46688    0.48788   1.00
C3       1.16680    0.48144    0.53102   1.00
C3       1.33415    0.53333    0.51024   1.00
H1       1.22192    0.53222    0.44616   1.00
H1       1.27685    0.44055    0.47993   1.00
H1       1.14968    0.53181    0.44764   1.00
H1       1.34895    0.44080    0.47881   1.00
H1       1.15179    0.46744    0.55503   1.00
H1       1.35043    0.55897    0.51892   1.00
C5       1.27239    0.57043    0.52538   1.00
H1       1.22401    0.46793    0.55392   1.00
H2       1.29354    0.59474    0.52902   1.00
H2       1.25103    0.58013    0.50300   1.00
N1       1.25292    0.56355    0.56276   1.00
C6       1.27012    0.55192    0.59612   1.00
C6       1.21460    0.56805    0.57016   1.00
C6       1.24243    0.54860    0.62512   1.00
C6       1.20711    0.55884    0.60860   1.00
H3       1.30099    0.54593    0.59924   1.00
H3       1.19309    0.57703    0.54882   1.00
H3       1.24741    0.53973    0.65498   1.00
H3       1.17903    0.55949    0.62295   1.00
C4       1.00009    0.27085    0.49997   1.00
C4       0.99991    0.22915    0.50003   1.00
C3       1.02989    0.29292    0.51793   1.00
C3       1.01137    0.20775    0.46674   1.00
C3       0.96980    0.29184    0.48150   1.00
C3a      0.98869    0.20737    0.53376   1.00
C2       0.99857    0.35517    0.49952   1.00
C2       1.00146    0.14483    0.50017   1.00
C3       1.02907    0.33434    0.51769   1.00
C3       1.01212    0.16641    0.46688   1.00
C3       0.96898    0.33320    0.48144   1.00
C3       0.98976    0.16585    0.53333   1.00
H1       1.05384    0.27808    0.53222   1.00
H1       1.02007    0.22315    0.44055   1.00
H1       1.05236    0.35032    0.53181   1.00
H1       1.02119    0.15105    0.44080   1.00
H1       0.94497    0.34821    0.46744   1.00
H1       0.98108    0.14957    0.55897   1.00
C5       0.97462    0.22761    0.57043   1.00
H1       0.94608    0.27599    0.46793   1.00
H2       0.97098    0.20646    0.59474   1.00
H2       0.99700    0.24897    0.58013   1.00
N1       0.93724    0.24708    0.56355   1.00
C6       0.90388    0.22988    0.55192   1.00
C6       0.92984    0.28540    0.56805   1.00
C6       0.87488    0.25757    0.54860   1.00
C6       0.89140    0.29289    0.55884   1.00
H3       0.90076    0.19901    0.54593   1.00
H3       0.95118    0.30691    0.57703   1.00
H3       0.84502    0.25259    0.53973   1.00
H3       0.87705    0.32097    0.55949   1.00
C4       0.99997    0.50009    0.27085   1.00
C4       1.00003    0.49991    0.22915   1.00
C3       1.01793    0.52989    0.29292   1.00
C3       0.96674    0.51137    0.20775   1.00
C3       0.98150    0.46980    0.29184   1.00
C3a      1.03376    0.48869    0.20737   1.00
C2       0.99952    0.49857    0.35517   1.00
C2       1.00017    0.50146    0.14483   1.00
C3       1.01769    0.52907    0.33434   1.00
C3       0.96688    0.51212    0.16641   1.00
C3       0.98144    0.46898    0.33320   1.00
C3       1.03333    0.48976    0.16585   1.00
H1       1.03222    0.55384    0.27808   1.00
H1       0.94055    0.52007    0.22315   1.00
H1       1.03181    0.55236    0.35032   1.00
H1       0.94080    0.52119    0.15105   1.00
H1       0.96744    0.44497    0.34821   1.00
H1       1.05897    0.48108    0.14957   1.00
C5       1.07043    0.47462    0.22761   1.00
H1       0.96793    0.44608    0.27599   1.00
H2       1.09474    0.47098    0.20646   1.00
H2       1.08013    0.49700    0.24897   1.00
N1       1.06355    0.43724    0.24708   1.00
C6       1.05192    0.40388    0.22988   1.00
C6       1.06805    0.42984    0.28540   1.00
C6       1.04860    0.37488    0.25757   1.00
C6       1.05884    0.39140    0.29289   1.00
H3       1.04593    0.40076    0.19901   1.00
H3       1.07703    0.45118    0.30691   1.00
H3       1.03973    0.34502    0.25259   1.00
H3       1.05949    0.37705    0.32097   1.00
