data_IRMOF10_SG202_interpen_Ligand8lp_label_b.

_audit_creation_method             'generated by an auxiliary program of Tobunporous'

_symmetry_space_group_name_H-M     'P 1'
_symmetry_Int_Tables_number        1
_symmetry_cell_setting             triclinic

_cell_length_a                    34.2800
_cell_length_b                    34.2800
_cell_length_c                    34.2800
_cell_angle_alpha                 90.0000
_cell_angle_beta                  90.0000
_cell_angle_gamma                 90.0000

loop_
_atom_site_label
_atom_site_fract_x
_atom_site_fract_y
_atom_site_fract_z
_atom_site_occupancy
O1       0.75000    0.75000    0.75000   1.00
Zn1      0.71720    0.78280    0.78280   1.00
Zn1      0.78280    0.71720    0.78280   1.00
Zn1      0.78280    0.78280    0.71720   1.00
Zn1      0.71720    0.71720    0.71720   1.00
O2       0.72650    0.77350    0.83820   1.00
O2       0.72650    0.83820    0.77350   1.00
O2       0.66180    0.77350    0.77350   1.00
O2       0.77350    0.72650    0.83820   1.00
O2       0.83820    0.72650    0.77350   1.00
O2       0.77350    0.66180    0.77350   1.00
O2       0.77350    0.83820    0.72650   1.00
O2       0.83820    0.77350    0.72650   1.00
O2       0.77350    0.77350    0.66180   1.00
O2       0.66180    0.72650    0.72650   1.00
O2       0.72650    0.66180    0.72650   1.00
O2       0.72650    0.72650    0.66180   1.00
C1       0.75000    0.75000    0.85520   1.00
C1       0.75000    0.85520    0.75000   1.00
C1       0.64480    0.75000    0.75000   1.00
C1       0.85520    0.75000    0.75000   1.00
C1       0.75000    0.64480    0.75000   1.00
C1       0.75000    0.75000    0.64480   1.00
O1       0.25000    0.25000    0.75000   1.00
Zn1      0.21720    0.28280    0.78280   1.00
Zn1      0.28280    0.21720    0.78280   1.00
Zn1      0.28280    0.28280    0.71720   1.00
Zn1      0.21720    0.21720    0.71720   1.00
O2       0.22650    0.27350    0.83820   1.00
O2       0.22650    0.33820    0.77350   1.00
O2       0.16180    0.27350    0.77350   1.00
O2       0.27350    0.22650    0.83820   1.00
O2       0.33820    0.22650    0.77350   1.00
O2       0.27350    0.16180    0.77350   1.00
O2       0.27350    0.33820    0.72650   1.00
O2       0.33820    0.27350    0.72650   1.00
O2       0.27350    0.27350    0.66180   1.00
O2       0.16180    0.22650    0.72650   1.00
O2       0.22650    0.16180    0.72650   1.00
O2       0.22650    0.22650    0.66180   1.00
C1       0.25000    0.25000    0.85520   1.00
C1       0.25000    0.35520    0.75000   1.00
C1       0.14480    0.25000    0.75000   1.00
C1       0.35520    0.25000    0.75000   1.00
C1       0.25000    0.14480    0.75000   1.00
C1       0.25000    0.25000    0.64480   1.00
O1       0.25000    0.75000    0.25000   1.00
Zn1      0.21720    0.78280    0.28280   1.00
Zn1      0.28280    0.71720    0.28280   1.00
Zn1      0.28280    0.78280    0.21720   1.00
Zn1      0.21720    0.71720    0.21720   1.00
O2       0.22650    0.77350    0.33820   1.00
O2       0.22650    0.83820    0.27350   1.00
O2       0.16180    0.77350    0.27350   1.00
O2       0.27350    0.72650    0.33820   1.00
O2       0.33820    0.72650    0.27350   1.00
O2       0.27350    0.66180    0.27350   1.00
O2       0.27350    0.83820    0.22650   1.00
O2       0.33820    0.77350    0.22650   1.00
O2       0.27350    0.77350    0.16180   1.00
O2       0.16180    0.72650    0.22650   1.00
O2       0.22650    0.66180    0.22650   1.00
O2       0.22650    0.72650    0.16180   1.00
C1       0.25000    0.75000    0.35520   1.00
C1       0.25000    0.85520    0.25000   1.00
C1       0.14480    0.75000    0.25000   1.00
C1       0.35520    0.75000    0.25000   1.00
C1       0.25000    0.64480    0.25000   1.00
C1       0.25000    0.75000    0.14480   1.00
O1       0.75000    0.25000    0.25000   1.00
Zn1      0.71720    0.28280    0.28280   1.00
Zn1      0.78280    0.21720    0.28280   1.00
Zn1      0.78280    0.28280    0.21720   1.00
Zn1      0.71720    0.21720    0.21720   1.00
O2       0.72650    0.27350    0.33820   1.00
O2       0.72650    0.33820    0.27350   1.00
O2       0.66180    0.27350    0.27350   1.00
O2       0.77350    0.22650    0.33820   1.00
O2       0.83820    0.22650    0.27350   1.00
O2       0.77350    0.16180    0.27350   1.00
O2       0.77350    0.33820    0.22650   1.00
O2       0.83820    0.27350    0.22650   1.00
O2       0.77350    0.27350    0.16180   1.00
O2       0.66180    0.22650    0.22650   1.00
O2       0.72650    0.16180    0.22650   1.00
O2       0.72650    0.22650    0.16180   1.00
C1       0.75000    0.25000    0.35520   1.00
C1       0.75000    0.35520    0.25000   1.00
C1       0.64480    0.25000    0.25000   1.00
C1       0.85520    0.25000    0.25000   1.00
C1       0.75000    0.14480    0.25000   1.00
C1       0.75000    0.25000    0.14480   1.00
O1       0.25000    0.25000    0.25000   1.00
Zn1      0.28280    0.21720    0.21720   1.00
Zn1      0.21720    0.28280    0.21720   1.00
Zn1      0.21720    0.21720    0.28280   1.00
Zn1      0.28280    0.28280    0.28280   1.00
O2       0.27350    0.22650    0.16180   1.00
O2       0.27350    0.16180    0.22650   1.00
O2       0.33820    0.22650    0.22650   1.00
O2       0.22650    0.27350    0.16180   1.00
O2       0.16180    0.27350    0.22650   1.00
O2       0.22650    0.33820    0.22650   1.00
O2       0.22650    0.16180    0.27350   1.00
O2       0.16180    0.22650    0.27350   1.00
O2       0.22650    0.22650    0.33820   1.00
O2       0.33820    0.27350    0.27350   1.00
O2       0.27350    0.33820    0.27350   1.00
O2       0.27350    0.27350    0.33820   1.00
C1       0.25000    0.25000    0.14480   1.00
C1       0.25000    0.14480    0.25000   1.00
C1       0.35520    0.25000    0.25000   1.00
C1       0.14480    0.25000    0.25000   1.00
C1       0.25000    0.35520    0.25000   1.00
C1       0.25000    0.25000    0.35520   1.00
O1       0.75000    0.75000    0.25000   1.00
Zn1      0.78280    0.71720    0.21720   1.00
Zn1      0.71720    0.78280    0.21720   1.00
Zn1      0.71720    0.71720    0.28280   1.00
Zn1      0.78280    0.78280    0.28280   1.00
O2       0.77350    0.72650    0.16180   1.00
O2       0.77350    0.66180    0.22650   1.00
O2       0.83820    0.72650    0.22650   1.00
O2       0.72650    0.77350    0.16180   1.00
O2       0.66180    0.77350    0.22650   1.00
O2       0.72650    0.83820    0.22650   1.00
O2       0.72650    0.66180    0.27350   1.00
O2       0.66180    0.72650    0.27350   1.00
O2       0.72650    0.72650    0.33820   1.00
O2       0.83820    0.77350    0.27350   1.00
O2       0.77350    0.83820    0.27350   1.00
O2       0.77350    0.77350    0.33820   1.00
C1       0.75000    0.75000    0.14480   1.00
C1       0.75000    0.64480    0.25000   1.00
C1       0.85520    0.75000    0.25000   1.00
C1       0.64480    0.75000    0.25000   1.00
C1       0.75000    0.85520    0.25000   1.00
C1       0.75000    0.75000    0.35520   1.00
O1       0.75000    0.25000    0.75000   1.00
Zn1      0.78280    0.21720    0.71720   1.00
Zn1      0.71720    0.28280    0.71720   1.00
Zn1      0.71720    0.21720    0.78280   1.00
Zn1      0.78280    0.28280    0.78280   1.00
O2       0.77350    0.22650    0.66180   1.00
O2       0.77350    0.16180    0.72650   1.00
O2       0.83820    0.22650    0.72650   1.00
O2       0.72650    0.27350    0.66180   1.00
O2       0.66180    0.27350    0.72650   1.00
O2       0.72650    0.33820    0.72650   1.00
O2       0.72650    0.16180    0.77350   1.00
O2       0.66180    0.22650    0.77350   1.00
O2       0.72650    0.22650    0.83820   1.00
O2       0.83820    0.27350    0.77350   1.00
O2       0.77350    0.33820    0.77350   1.00
O2       0.77350    0.27350    0.83820   1.00
C1       0.75000    0.25000    0.64480   1.00
C1       0.75000    0.14480    0.75000   1.00
C1       0.85520    0.25000    0.75000   1.00
C1       0.64480    0.25000    0.75000   1.00
C1       0.75000    0.35520    0.75000   1.00
C1       0.75000    0.25000    0.85520   1.00
O1       0.25000    0.75000    0.75000   1.00
Zn1      0.28280    0.71720    0.71720   1.00
Zn1      0.21720    0.78280    0.71720   1.00
Zn1      0.21720    0.71720    0.78280   1.00
Zn1      0.28280    0.78280    0.78280   1.00
O2       0.27350    0.72650    0.66180   1.00
O2       0.27350    0.66180    0.72650   1.00
O2       0.33820    0.72650    0.72650   1.00
O2       0.22650    0.77350    0.66180   1.00
O2       0.16180    0.77350    0.72650   1.00
O2       0.22650    0.83820    0.72650   1.00
O2       0.22650    0.66180    0.77350   1.00
O2       0.16180    0.72650    0.77350   1.00
O2       0.22650    0.72650    0.83820   1.00
O2       0.33820    0.77350    0.77350   1.00
O2       0.27350    0.83820    0.77350   1.00
O2       0.27350    0.77350    0.83820   1.00
C1       0.25000    0.75000    0.64480   1.00
C1       0.25000    0.64480    0.75000   1.00
C1       0.35520    0.75000    0.75000   1.00
C1       0.14480    0.75000    0.75000   1.00
C1       0.25000    0.85520    0.75000   1.00
C1       0.25000    0.75000    0.85520   1.00
O1       1.00000    1.00000    1.00000   1.00
Zn1      0.96720    1.03280    1.03280   1.00
Zn1      1.03280    0.96720    1.03280   1.00
Zn1      1.03280    1.03280    0.96720   1.00
Zn1      0.96720    0.96720    0.96720   1.00
O2       0.97650    1.02350    1.08820   1.00
O2       0.97650    1.08820    1.02350   1.00
O2       0.91180    1.02350    1.02350   1.00
O2       1.02350    0.97650    1.08820   1.00
O2       1.08820    0.97650    1.02350   1.00
O2       1.02350    0.91180    1.02350   1.00
O2       1.02350    1.08820    0.97650   1.00
O2       1.08820    1.02350    0.97650   1.00
O2       1.02350    1.02350    0.91180   1.00
O2       0.91180    0.97650    0.97650   1.00
O2       0.97650    0.91180    0.97650   1.00
O2       0.97650    0.97650    0.91180   1.00
C1       1.00000    1.00000    1.10520   1.00
C1       1.00000    1.10520    1.00000   1.00
C1       0.89480    1.00000    1.00000   1.00
C1       1.10520    1.00000    1.00000   1.00
C1       1.00000    0.89480    1.00000   1.00
C1       1.00000    1.00000    0.89480   1.00
O1       0.50000    0.50000    1.00000   1.00
Zn1      0.46720    0.53280    1.03280   1.00
Zn1      0.53280    0.46720    1.03280   1.00
Zn1      0.53280    0.53280    0.96720   1.00
Zn1      0.46720    0.46720    0.96720   1.00
O2       0.47650    0.52350    1.08820   1.00
O2       0.47650    0.58820    1.02350   1.00
O2       0.41180    0.52350    1.02350   1.00
O2       0.52350    0.47650    1.08820   1.00
O2       0.58820    0.47650    1.02350   1.00
O2       0.52350    0.41180    1.02350   1.00
O2       0.52350    0.58820    0.97650   1.00
O2       0.58820    0.52350    0.97650   1.00
O2       0.52350    0.52350    0.91180   1.00
O2       0.41180    0.47650    0.97650   1.00
O2       0.47650    0.41180    0.97650   1.00
O2       0.47650    0.47650    0.91180   1.00
C1       0.50000    0.50000    1.10520   1.00
C1       0.50000    0.60520    1.00000   1.00
C1       0.39480    0.50000    1.00000   1.00
C1       0.60520    0.50000    1.00000   1.00
C1       0.50000    0.39480    1.00000   1.00
C1       0.50000    0.50000    0.89480   1.00
O1       0.50000    1.00000    0.50000   1.00
Zn1      0.46720    1.03280    0.53280   1.00
Zn1      0.53280    0.96720    0.53280   1.00
Zn1      0.53280    1.03280    0.46720   1.00
Zn1      0.46720    0.96720    0.46720   1.00
O2       0.47650    1.02350    0.58820   1.00
O2       0.47650    1.08820    0.52350   1.00
O2       0.41180    1.02350    0.52350   1.00
O2       0.52350    0.97650    0.58820   1.00
O2       0.58820    0.97650    0.52350   1.00
O2       0.52350    0.91180    0.52350   1.00
O2       0.52350    1.08820    0.47650   1.00
O2       0.58820    1.02350    0.47650   1.00
O2       0.52350    1.02350    0.41180   1.00
O2       0.41180    0.97650    0.47650   1.00
O2       0.47650    0.91180    0.47650   1.00
O2       0.47650    0.97650    0.41180   1.00
C1       0.50000    1.00000    0.60520   1.00
C1       0.50000    1.10520    0.50000   1.00
C1       0.39480    1.00000    0.50000   1.00
C1       0.60520    1.00000    0.50000   1.00
C1       0.50000    0.89480    0.50000   1.00
C1       0.50000    1.00000    0.39480   1.00
O1       1.00000    0.50000    0.50000   1.00
Zn1      0.96720    0.53280    0.53280   1.00
Zn1      1.03280    0.46720    0.53280   1.00
Zn1      1.03280    0.53280    0.46720   1.00
Zn1      0.96720    0.46720    0.46720   1.00
O2       0.97650    0.52350    0.58820   1.00
O2       0.97650    0.58820    0.52350   1.00
O2       0.91180    0.52350    0.52350   1.00
O2       1.02350    0.47650    0.58820   1.00
O2       1.08820    0.47650    0.52350   1.00
O2       1.02350    0.41180    0.52350   1.00
O2       1.02350    0.58820    0.47650   1.00
O2       1.08820    0.52350    0.47650   1.00
O2       1.02350    0.52350    0.41180   1.00
O2       0.91180    0.47650    0.47650   1.00
O2       0.97650    0.41180    0.47650   1.00
O2       0.97650    0.47650    0.41180   1.00
C1       1.00000    0.50000    0.60520   1.00
C1       1.00000    0.60520    0.50000   1.00
C1       0.89480    0.50000    0.50000   1.00
C1       1.10520    0.50000    0.50000   1.00
C1       1.00000    0.39480    0.50000   1.00
C1       1.00000    0.50000    0.39480   1.00
O1       0.50000    0.50000    0.50000   1.00
Zn1      0.53280    0.46720    0.46720   1.00
Zn1      0.46720    0.53280    0.46720   1.00
Zn1      0.46720    0.46720    0.53280   1.00
Zn1      0.53280    0.53280    0.53280   1.00
O2       0.52350    0.47650    0.41180   1.00
O2       0.52350    0.41180    0.47650   1.00
O2       0.58820    0.47650    0.47650   1.00
O2       0.47650    0.52350    0.41180   1.00
O2       0.41180    0.52350    0.47650   1.00
O2       0.47650    0.58820    0.47650   1.00
O2       0.47650    0.41180    0.52350   1.00
O2       0.41180    0.47650    0.52350   1.00
O2       0.47650    0.47650    0.58820   1.00
O2       0.58820    0.52350    0.52350   1.00
O2       0.52350    0.58820    0.52350   1.00
O2       0.52350    0.52350    0.58820   1.00
C1       0.50000    0.50000    0.39480   1.00
C1       0.50000    0.39480    0.50000   1.00
C1       0.60520    0.50000    0.50000   1.00
C1       0.39480    0.50000    0.50000   1.00
C1       0.50000    0.60520    0.50000   1.00
C1       0.50000    0.50000    0.60520   1.00
O1       1.00000    1.00000    0.50000   1.00
Zn1      1.03280    0.96720    0.46720   1.00
Zn1      0.96720    1.03280    0.46720   1.00
Zn1      0.96720    0.96720    0.53280   1.00
Zn1      1.03280    1.03280    0.53280   1.00
O2       1.02350    0.97650    0.41180   1.00
O2       1.02350    0.91180    0.47650   1.00
O2       1.08820    0.97650    0.47650   1.00
O2       0.97650    1.02350    0.41180   1.00
O2       0.91180    1.02350    0.47650   1.00
O2       0.97650    1.08820    0.47650   1.00
O2       0.97650    0.91180    0.52350   1.00
O2       0.91180    0.97650    0.52350   1.00
O2       0.97650    0.97650    0.58820   1.00
O2       1.08820    1.02350    0.52350   1.00
O2       1.02350    1.08820    0.52350   1.00
O2       1.02350    1.02350    0.58820   1.00
C1       1.00000    1.00000    0.39480   1.00
C1       1.00000    0.89480    0.50000   1.00
C1       1.10520    1.00000    0.50000   1.00
C1       0.89480    1.00000    0.50000   1.00
C1       1.00000    1.10520    0.50000   1.00
C1       1.00000    1.00000    0.60520   1.00
O1       1.00000    0.50000    1.00000   1.00
Zn1      1.03280    0.46720    0.96720   1.00
Zn1      0.96720    0.53280    0.96720   1.00
Zn1      0.96720    0.46720    1.03280   1.00
Zn1      1.03280    0.53280    1.03280   1.00
O2       1.02350    0.47650    0.91180   1.00
O2       1.02350    0.41180    0.97650   1.00
O2       1.08820    0.47650    0.97650   1.00
O2       0.97650    0.52350    0.91180   1.00
O2       0.91180    0.52350    0.97650   1.00
O2       0.97650    0.58820    0.97650   1.00
O2       0.97650    0.41180    1.02350   1.00
O2       0.91180    0.47650    1.02350   1.00
O2       0.97650    0.47650    1.08820   1.00
O2       1.08820    0.52350    1.02350   1.00
O2       1.02350    0.58820    1.02350   1.00
O2       1.02350    0.52350    1.08820   1.00
C1       1.00000    0.50000    0.89480   1.00
C1       1.00000    0.39480    1.00000   1.00
C1       1.10520    0.50000    1.00000   1.00
C1       0.89480    0.50000    1.00000   1.00
C1       1.00000    0.60520    1.00000   1.00
C1       1.00000    0.50000    1.10520   1.00
O1       0.50000    1.00000    1.00000   1.00
Zn1      0.53280    0.96720    0.96720   1.00
Zn1      0.46720    1.03280    0.96720   1.00
Zn1      0.46720    0.96720    1.03280   1.00
Zn1      0.53280    1.03280    1.03280   1.00
O2       0.52350    0.97650    0.91180   1.00
O2       0.52350    0.91180    0.97650   1.00
O2       0.58820    0.97650    0.97650   1.00
O2       0.47650    1.02350    0.91180   1.00
O2       0.41180    1.02350    0.97650   1.00
O2       0.47650    1.08820    0.97650   1.00
O2       0.47650    0.91180    1.02350   1.00
O2       0.41180    0.97650    1.02350   1.00
O2       0.47650    0.97650    1.08820   1.00
O2       0.58820    1.02350    1.02350   1.00
O2       0.52350    1.08820    1.02350   1.00
O2       0.52350    1.02350    1.08820   1.00
C1       0.50000    1.00000    0.89480   1.00
C1       0.50000    0.89480    1.00000   1.00
C1       0.60520    1.00000    1.00000   1.00
C1       0.39480    1.00000    1.00000   1.00
C1       0.50000    1.10520    1.00000   1.00
C1       0.50000    1.00000    1.10520   1.00
C4       0.75000    0.75010    0.97915   1.00
C4       0.75000    0.74990    1.02085   1.00
C3       0.72494    0.77423    0.95708   1.00
C3       0.77918    0.76958    1.04225   1.00
C3       0.77568    0.72562    0.95816   1.00
C3a      0.72032    0.73034    1.04263   1.00
C2       0.75084    0.74875    0.89483   1.00
C2       0.74946    0.75137    1.10517   1.00
C3       0.72540    0.77350    0.91566   1.00
C3       0.77885    0.77028    1.08359   1.00
C3       0.77596    0.72484    0.91680   1.00
C3       0.72045    0.73149    1.08415   1.00
H1       0.70495    0.79367    0.97192   1.00
H1       0.80223    0.78477    1.02685   1.00
H1       0.70573    0.79235    0.89968   1.00
H1       0.80170    0.78578    1.09895   1.00
H1       0.79569    0.70527    0.90179   1.00
H1       0.69793    0.71647    1.10043   1.00
C5       0.68854    0.70726    1.02239   1.00
H1       0.79492    0.70621    0.97401   1.00
H2       0.66599    0.69745    1.04354   1.00
H2       0.67338    0.72637    1.00103   1.00
N1       0.70485    0.67294    1.00292   1.00
C6       0.72472    0.64372    1.02012   1.00
C6       0.70242    0.66462    0.96460   1.00
C6       0.73543    0.61657    0.99243   1.00
C6       0.72126    0.62987    0.95711   1.00
H3       0.73131    0.64226    1.05099   1.00
H3       0.68822    0.68291    0.94309   1.00
H3       0.75172    0.59002    0.99741   1.00
H3       0.72434    0.61585    0.92903   1.00
C4       0.75010    0.97915    0.75000   1.00
C4       0.74990    1.02085    0.75000   1.00
C3       0.77423    0.95708    0.72494   1.00
C3       0.76958    1.04225    0.77918   1.00
C3       0.72562    0.95816    0.77568   1.00
C3a      0.73034    1.04263    0.72032   1.00
C2       0.74875    0.89483    0.75084   1.00
C2       0.75137    1.10517    0.74946   1.00
C3       0.77350    0.91566    0.72540   1.00
C3       0.77028    1.08359    0.77885   1.00
C3       0.72484    0.91680    0.77596   1.00
C3       0.73149    1.08415    0.72045   1.00
H1       0.79367    0.97192    0.70495   1.00
H1       0.78477    1.02685    0.80223   1.00
H1       0.79235    0.89968    0.70573   1.00
H1       0.78578    1.09895    0.80170   1.00
H1       0.70527    0.90179    0.79569   1.00
H1       0.71647    1.10043    0.69793   1.00
C5       0.70726    1.02239    0.68854   1.00
H1       0.70621    0.97401    0.79492   1.00
H2       0.69745    1.04354    0.66599   1.00
H2       0.72637    1.00103    0.67338   1.00
N1       0.67294    1.00292    0.70485   1.00
C6       0.64372    1.02012    0.72472   1.00
C6       0.66462    0.96460    0.70242   1.00
C6       0.61657    0.99243    0.73543   1.00
C6       0.62987    0.95711    0.72126   1.00
H3       0.64226    1.05099    0.73131   1.00
H3       0.68291    0.94309    0.68822   1.00
H3       0.59002    0.99741    0.75172   1.00
H3       0.61585    0.92903    0.72434   1.00
C4       0.52085    0.75000    0.74990   1.00
C4       0.47915    0.75000    0.75010   1.00
C3       0.54292    0.72494    0.72577   1.00
C3       0.45775    0.77918    0.73042   1.00
C3       0.54184    0.77568    0.77438   1.00
C3a      0.45737    0.72032    0.76966   1.00
C2       0.60517    0.75084    0.75125   1.00
C2       0.39483    0.74946    0.74863   1.00
C3       0.58434    0.72540    0.72650   1.00
C3       0.41641    0.77885    0.72972   1.00
C3       0.58320    0.77596    0.77516   1.00
C3       0.41585    0.72045    0.76851   1.00
H1       0.52808    0.70495    0.70633   1.00
H1       0.47315    0.80223    0.71523   1.00
H1       0.60032    0.70573    0.70765   1.00
H1       0.40105    0.80170    0.71422   1.00
H1       0.59821    0.79569    0.79473   1.00
H1       0.39957    0.69793    0.78353   1.00
C5       0.47761    0.68854    0.79274   1.00
H1       0.52599    0.79492    0.79379   1.00
H2       0.45646    0.66599    0.80255   1.00
H2       0.49897    0.67338    0.77363   1.00
N1       0.49708    0.70485    0.82706   1.00
C6       0.47988    0.72472    0.85628   1.00
C6       0.53540    0.70242    0.83538   1.00
C6       0.50757    0.73543    0.88343   1.00
C6       0.54289    0.72126    0.87013   1.00
H3       0.44901    0.73131    0.85774   1.00
H3       0.55691    0.68822    0.81709   1.00
H3       0.50259    0.75172    0.90998   1.00
H3       0.57097    0.72434    0.88415   1.00
C4       0.97915    0.75000    0.75010   1.00
C4       1.02085    0.75000    0.74990   1.00
C3       0.95708    0.72494    0.77423   1.00
C3       1.04225    0.77918    0.76958   1.00
C3       0.95816    0.77568    0.72562   1.00
C3a      1.04263    0.72032    0.73034   1.00
C2       0.89483    0.75084    0.74875   1.00
C2       1.10517    0.74946    0.75137   1.00
C3       0.91566    0.72540    0.77350   1.00
C3       1.08359    0.77885    0.77028   1.00
C3       0.91680    0.77596    0.72484   1.00
C3       1.08415    0.72045    0.73149   1.00
H1       0.97192    0.70495    0.79367   1.00
H1       1.02685    0.80223    0.78477   1.00
H1       0.89968    0.70573    0.79235   1.00
H1       1.09895    0.80170    0.78578   1.00
H1       0.90179    0.79569    0.70527   1.00
H1       1.10043    0.69793    0.71647   1.00
C5       1.02239    0.68854    0.70726   1.00
H1       0.97401    0.79492    0.70621   1.00
H2       1.04354    0.66599    0.69745   1.00
H2       1.00103    0.67338    0.72637   1.00
N1       1.00292    0.70485    0.67294   1.00
C6       1.02012    0.72472    0.64372   1.00
C6       0.96460    0.70242    0.66462   1.00
C6       0.99243    0.73543    0.61657   1.00
C6       0.95711    0.72126    0.62987   1.00
H3       1.05099    0.73131    0.64226   1.00
H3       0.94309    0.68822    0.68291   1.00
H3       0.99741    0.75172    0.59002   1.00
H3       0.92903    0.72434    0.61585   1.00
C4       0.74990    0.52085    0.75000   1.00
C4       0.75010    0.47915    0.75000   1.00
C3       0.72577    0.54292    0.72494   1.00
C3       0.73042    0.45775    0.77918   1.00
C3       0.77438    0.54184    0.77568   1.00
C3a      0.76966    0.45737    0.72032   1.00
C2       0.75125    0.60517    0.75084   1.00
C2       0.74863    0.39483    0.74946   1.00
C3       0.72650    0.58434    0.72540   1.00
C3       0.72972    0.41641    0.77885   1.00
C3       0.77516    0.58320    0.77596   1.00
C3       0.76851    0.41585    0.72045   1.00
H1       0.70633    0.52808    0.70495   1.00
H1       0.71523    0.47315    0.80223   1.00
H1       0.70765    0.60032    0.70573   1.00
H1       0.71422    0.40105    0.80170   1.00
H1       0.79473    0.59821    0.79569   1.00
H1       0.78353    0.39957    0.69793   1.00
C5       0.79274    0.47761    0.68854   1.00
H1       0.79379    0.52599    0.79492   1.00
H2       0.80255    0.45646    0.66599   1.00
H2       0.77363    0.49897    0.67338   1.00
N1       0.82706    0.49708    0.70485   1.00
C6       0.85628    0.47988    0.72472   1.00
C6       0.83538    0.53540    0.70242   1.00
C6       0.88343    0.50757    0.73543   1.00
C6       0.87013    0.54289    0.72126   1.00
H3       0.85774    0.44901    0.73131   1.00
H3       0.81709    0.55691    0.68822   1.00
H3       0.90998    0.50259    0.75172   1.00
H3       0.88415    0.57097    0.72434   1.00
C4       0.75000    0.74990    0.52085   1.00
C4       0.75000    0.75010    0.47915   1.00
C3       0.72494    0.72577    0.54292   1.00
C3       0.77918    0.73042    0.45775   1.00
C3       0.77568    0.77438    0.54184   1.00
C3a      0.72032    0.76966    0.45737   1.00
C2       0.75084    0.75125    0.60517   1.00
C2       0.74946    0.74863    0.39483   1.00
C3       0.72540    0.72650    0.58434   1.00
C3       0.77885    0.72972    0.41641   1.00
C3       0.77596    0.77516    0.58320   1.00
C3       0.72045    0.76851    0.41585   1.00
H1       0.70495    0.70633    0.52808   1.00
H1       0.80223    0.71523    0.47315   1.00
H1       0.70573    0.70765    0.60032   1.00
H1       0.80170    0.71422    0.40105   1.00
H1       0.79569    0.79473    0.59821   1.00
H1       0.69793    0.78353    0.39957   1.00
C5       0.68854    0.79274    0.47761   1.00
H1       0.79492    0.79379    0.52599   1.00
H2       0.66599    0.80255    0.45646   1.00
H2       0.67338    0.77363    0.49897   1.00
N1       0.70485    0.82706    0.49708   1.00
C6       0.72472    0.85628    0.47988   1.00
C6       0.70242    0.83538    0.53540   1.00
C6       0.73543    0.88343    0.50757   1.00
C6       0.72126    0.87013    0.54289   1.00
H3       0.73131    0.85774    0.44901   1.00
H3       0.68822    0.81709    0.55691   1.00
H3       0.75172    0.90998    0.50259   1.00
H3       0.72434    0.88415    0.57097   1.00
C4       0.25000    0.25010    0.97915   1.00
C4       0.25000    0.24990    1.02085   1.00
C3       0.22494    0.27423    0.95708   1.00
C3       0.27918    0.26958    1.04225   1.00
C3       0.27568    0.22562    0.95816   1.00
C3a      0.22032    0.23034    1.04263   1.00
C2       0.25084    0.24875    0.89483   1.00
C2       0.24946    0.25137    1.10517   1.00
C3       0.22540    0.27350    0.91566   1.00
C3       0.27885    0.27028    1.08359   1.00
C3       0.27596    0.22484    0.91680   1.00
C3       0.22045    0.23149    1.08415   1.00
H1       0.20495    0.29367    0.97192   1.00
H1       0.30223    0.28477    1.02685   1.00
H1       0.20573    0.29235    0.89968   1.00
H1       0.30170    0.28578    1.09895   1.00
H1       0.29569    0.20527    0.90179   1.00
H1       0.19793    0.21647    1.10043   1.00
C5       0.18854    0.20726    1.02239   1.00
H1       0.29492    0.20621    0.97401   1.00
H2       0.16599    0.19745    1.04354   1.00
H2       0.17338    0.22637    1.00103   1.00
N1       0.20485    0.17294    1.00292   1.00
C6       0.22472    0.14372    1.02012   1.00
C6       0.20242    0.16462    0.96460   1.00
C6       0.23543    0.11657    0.99243   1.00
C6       0.22126    0.12987    0.95711   1.00
H3       0.23131    0.14226    1.05099   1.00
H3       0.18822    0.18291    0.94309   1.00
H3       0.25172    0.09002    0.99741   1.00
H3       0.22434    0.11585    0.92903   1.00
C4       0.25010    0.47915    0.75000   1.00
C4       0.24990    0.52085    0.75000   1.00
C3       0.27423    0.45708    0.72494   1.00
C3       0.26958    0.54225    0.77918   1.00
C3       0.22562    0.45816    0.77568   1.00
C3a      0.23034    0.54263    0.72032   1.00
C2       0.24875    0.39483    0.75084   1.00
C2       0.25137    0.60517    0.74946   1.00
C3       0.27350    0.41566    0.72540   1.00
C3       0.27028    0.58359    0.77885   1.00
C3       0.22484    0.41680    0.77596   1.00
C3       0.23149    0.58415    0.72045   1.00
H1       0.29367    0.47192    0.70495   1.00
H1       0.28477    0.52685    0.80223   1.00
H1       0.29235    0.39968    0.70573   1.00
H1       0.28578    0.59895    0.80170   1.00
H1       0.20527    0.40179    0.79569   1.00
H1       0.21647    0.60043    0.69793   1.00
C5       0.20726    0.52239    0.68854   1.00
H1       0.20621    0.47401    0.79492   1.00
H2       0.19745    0.54354    0.66599   1.00
H2       0.22637    0.50103    0.67338   1.00
N1       0.17294    0.50292    0.70485   1.00
C6       0.14372    0.52012    0.72472   1.00
C6       0.16462    0.46460    0.70242   1.00
C6       0.11657    0.49243    0.73543   1.00
C6       0.12987    0.45711    0.72126   1.00
H3       0.14226    0.55099    0.73131   1.00
H3       0.18291    0.44309    0.68822   1.00
H3       0.09002    0.49741    0.75172   1.00
H3       0.11585    0.42903    0.72434   1.00
C4       0.02085    0.25000    0.74990   1.00
C4       -0.02085   0.25000    0.75010   1.00
C3       0.04292    0.22494    0.72577   1.00
C3       -0.04225   0.27918    0.73042   1.00
C3       0.04184    0.27568    0.77438   1.00
C3a      -0.04263   0.22032    0.76966   1.00
C2       0.10517    0.25084    0.75125   1.00
C2       -0.10517   0.24946    0.74863   1.00
C3       0.08434    0.22540    0.72650   1.00
C3       -0.08359   0.27885    0.72972   1.00
C3       0.08320    0.27596    0.77516   1.00
C3       -0.08415   0.22045    0.76851   1.00
H1       0.02808    0.20495    0.70633   1.00
H1       -0.02685   0.30223    0.71523   1.00
H1       0.10032    0.20573    0.70765   1.00
H1       -0.09895   0.30170    0.71422   1.00
H1       0.09821    0.29569    0.79473   1.00
H1       -0.10043   0.19793    0.78353   1.00
C5       -0.02239   0.18854    0.79274   1.00
H1       0.02599    0.29492    0.79379   1.00
H2       -0.04354   0.16599    0.80255   1.00
H2       -0.00103   0.17338    0.77363   1.00
N1       -0.00292   0.20485    0.82706   1.00
C6       -0.02012   0.22472    0.85628   1.00
C6       0.03540    0.20242    0.83538   1.00
C6       0.00757    0.23543    0.88343   1.00
C6       0.04289    0.22126    0.87013   1.00
H3       -0.05099   0.23131    0.85774   1.00
H3       0.05691    0.18822    0.81709   1.00
H3       0.00259    0.25172    0.90998   1.00
H3       0.07097    0.22434    0.88415   1.00
C4       0.47915    0.25000    0.75010   1.00
C4       0.52085    0.25000    0.74990   1.00
C3       0.45708    0.22494    0.77423   1.00
C3       0.54225    0.27918    0.76958   1.00
C3       0.45816    0.27568    0.72562   1.00
C3a      0.54263    0.22032    0.73034   1.00
C2       0.39483    0.25084    0.74875   1.00
C2       0.60517    0.24946    0.75137   1.00
C3       0.41566    0.22540    0.77350   1.00
C3       0.58359    0.27885    0.77028   1.00
C3       0.41680    0.27596    0.72484   1.00
C3       0.58415    0.22045    0.73149   1.00
H1       0.47192    0.20495    0.79367   1.00
H1       0.52685    0.30223    0.78477   1.00
H1       0.39968    0.20573    0.79235   1.00
H1       0.59895    0.30170    0.78578   1.00
H1       0.40179    0.29569    0.70527   1.00
H1       0.60043    0.19793    0.71647   1.00
C5       0.52239    0.18854    0.70726   1.00
H1       0.47401    0.29492    0.70621   1.00
H2       0.54354    0.16599    0.69745   1.00
H2       0.50103    0.17338    0.72637   1.00
N1       0.50292    0.20485    0.67294   1.00
C6       0.52012    0.22472    0.64372   1.00
C6       0.46460    0.20242    0.66462   1.00
C6       0.49243    0.23543    0.61657   1.00
C6       0.45711    0.22126    0.62987   1.00
H3       0.55099    0.23131    0.64226   1.00
H3       0.44309    0.18822    0.68291   1.00
H3       0.49741    0.25172    0.59002   1.00
H3       0.42903    0.22434    0.61585   1.00
C4       0.24990    0.02085    0.75000   1.00
C4       0.25010    -0.02085   0.75000   1.00
C3       0.22577    0.04292    0.72494   1.00
C3       0.23042    -0.04225   0.77918   1.00
C3       0.27438    0.04184    0.77568   1.00
C3a      0.26966    -0.04263   0.72032   1.00
C2       0.25125    0.10517    0.75084   1.00
C2       0.24863    -0.10517   0.74946   1.00
C3       0.22650    0.08434    0.72540   1.00
C3       0.22972    -0.08359   0.77885   1.00
C3       0.27516    0.08320    0.77596   1.00
C3       0.26851    -0.08415   0.72045   1.00
H1       0.20633    0.02808    0.70495   1.00
H1       0.21523    -0.02685   0.80223   1.00
H1       0.20765    0.10032    0.70573   1.00
H1       0.21422    -0.09895   0.80170   1.00
H1       0.29473    0.09821    0.79569   1.00
H1       0.28353    -0.10043   0.69793   1.00
C5       0.29274    -0.02239   0.68854   1.00
H1       0.29379    0.02599    0.79492   1.00
H2       0.30255    -0.04354   0.66599   1.00
H2       0.27363    -0.00103   0.67338   1.00
N1       0.32706    -0.00292   0.70485   1.00
C6       0.35628    -0.02012   0.72472   1.00
C6       0.33538    0.03540    0.70242   1.00
C6       0.38343    0.00757    0.73543   1.00
C6       0.37013    0.04289    0.72126   1.00
H3       0.35774    -0.05099   0.73131   1.00
H3       0.31709    0.05691    0.68822   1.00
H3       0.40998    0.00259    0.75172   1.00
H3       0.38415    0.07097    0.72434   1.00
C4       0.25000    0.24990    0.52085   1.00
C4       0.25000    0.25010    0.47915   1.00
C3       0.22494    0.22577    0.54292   1.00
C3       0.27918    0.23042    0.45775   1.00
C3       0.27568    0.27438    0.54184   1.00
C3a      0.22032    0.26966    0.45737   1.00
C2       0.25084    0.25125    0.60517   1.00
C2       0.24946    0.24863    0.39483   1.00
C3       0.22540    0.22650    0.58434   1.00
C3       0.27885    0.22972    0.41641   1.00
C3       0.27596    0.27516    0.58320   1.00
C3       0.22045    0.26851    0.41585   1.00
H1       0.20495    0.20633    0.52808   1.00
H1       0.30223    0.21523    0.47315   1.00
H1       0.20573    0.20765    0.60032   1.00
H1       0.30170    0.21422    0.40105   1.00
H1       0.29569    0.29473    0.59821   1.00
H1       0.19793    0.28353    0.39957   1.00
C5       0.18854    0.29274    0.47761   1.00
H1       0.29492    0.29379    0.52599   1.00
H2       0.16599    0.30255    0.45646   1.00
H2       0.17338    0.27363    0.49897   1.00
N1       0.20485    0.32706    0.49708   1.00
C6       0.22472    0.35628    0.47988   1.00
C6       0.20242    0.33538    0.53540   1.00
C6       0.23543    0.38343    0.50757   1.00
C6       0.22126    0.37013    0.54289   1.00
H3       0.23131    0.35774    0.44901   1.00
H3       0.18822    0.31709    0.55691   1.00
H3       0.25172    0.40998    0.50259   1.00
H3       0.22434    0.38415    0.57097   1.00
C4       0.25000    0.75010    0.47915   1.00
C4       0.25000    0.74990    0.52085   1.00
C3       0.22494    0.77423    0.45708   1.00
C3       0.27918    0.76958    0.54225   1.00
C3       0.27568    0.72562    0.45816   1.00
C3a      0.22032    0.73034    0.54263   1.00
C2       0.25084    0.74875    0.39483   1.00
C2       0.24946    0.75137    0.60517   1.00
C3       0.22540    0.77350    0.41566   1.00
C3       0.27885    0.77028    0.58359   1.00
C3       0.27596    0.72484    0.41680   1.00
C3       0.22045    0.73149    0.58415   1.00
H1       0.20495    0.79367    0.47192   1.00
H1       0.30223    0.78477    0.52685   1.00
H1       0.20573    0.79235    0.39968   1.00
H1       0.30170    0.78578    0.59895   1.00
H1       0.29569    0.70527    0.40179   1.00
H1       0.19793    0.71647    0.60043   1.00
C5       0.18854    0.70726    0.52239   1.00
H1       0.29492    0.70621    0.47401   1.00
H2       0.16599    0.69745    0.54354   1.00
H2       0.17338    0.72637    0.50103   1.00
N1       0.20485    0.67294    0.50292   1.00
C6       0.22472    0.64372    0.52012   1.00
C6       0.20242    0.66462    0.46460   1.00
C6       0.23543    0.61657    0.49243   1.00
C6       0.22126    0.62987    0.45711   1.00
H3       0.23131    0.64226    0.55099   1.00
H3       0.18822    0.68291    0.44309   1.00
H3       0.25172    0.59002    0.49741   1.00
H3       0.22434    0.61585    0.42903   1.00
C4       0.25010    0.97915    0.25000   1.00
C4       0.24990    1.02085    0.25000   1.00
C3       0.27423    0.95708    0.22494   1.00
C3       0.26958    1.04225    0.27918   1.00
C3       0.22562    0.95816    0.27568   1.00
C3a      0.23034    1.04263    0.22032   1.00
C2       0.24875    0.89483    0.25084   1.00
C2       0.25137    1.10517    0.24946   1.00
C3       0.27350    0.91566    0.22540   1.00
C3       0.27028    1.08359    0.27885   1.00
C3       0.22484    0.91680    0.27596   1.00
C3       0.23149    1.08415    0.22045   1.00
H1       0.29367    0.97192    0.20495   1.00
H1       0.28477    1.02685    0.30223   1.00
H1       0.29235    0.89968    0.20573   1.00
H1       0.28578    1.09895    0.30170   1.00
H1       0.20527    0.90179    0.29569   1.00
H1       0.21647    1.10043    0.19793   1.00
C5       0.20726    1.02239    0.18854   1.00
H1       0.20621    0.97401    0.29492   1.00
H2       0.19745    1.04354    0.16599   1.00
H2       0.22637    1.00103    0.17338   1.00
N1       0.17294    1.00292    0.20485   1.00
C6       0.14372    1.02012    0.22472   1.00
C6       0.16462    0.96460    0.20242   1.00
C6       0.11657    0.99243    0.23543   1.00
C6       0.12987    0.95711    0.22126   1.00
H3       0.14226    1.05099    0.23131   1.00
H3       0.18291    0.94309    0.18822   1.00
H3       0.09002    0.99741    0.25172   1.00
H3       0.11585    0.92903    0.22434   1.00
C4       0.02085    0.75000    0.24990   1.00
C4       -0.02085   0.75000    0.25010   1.00
C3       0.04292    0.72494    0.22577   1.00
C3       -0.04225   0.77918    0.23042   1.00
C3       0.04184    0.77568    0.27438   1.00
C3a      -0.04263   0.72032    0.26966   1.00
C2       0.10517    0.75084    0.25125   1.00
C2       -0.10517   0.74946    0.24863   1.00
C3       0.08434    0.72540    0.22650   1.00
C3       -0.08359   0.77885    0.22972   1.00
C3       0.08320    0.77596    0.27516   1.00
C3       -0.08415   0.72045    0.26851   1.00
H1       0.02808    0.70495    0.20633   1.00
H1       -0.02685   0.80223    0.21523   1.00
H1       0.10032    0.70573    0.20765   1.00
H1       -0.09895   0.80170    0.21422   1.00
H1       0.09821    0.79569    0.29473   1.00
H1       -0.10043   0.69793    0.28353   1.00
C5       -0.02239   0.68854    0.29274   1.00
H1       0.02599    0.79492    0.29379   1.00
H2       -0.04354   0.66599    0.30255   1.00
H2       -0.00103   0.67338    0.27363   1.00
N1       -0.00292   0.70485    0.32706   1.00
C6       -0.02012   0.72472    0.35628   1.00
C6       0.03540    0.70242    0.33538   1.00
C6       0.00757    0.73543    0.38343   1.00
C6       0.04289    0.72126    0.37013   1.00
H3       -0.05099   0.73131    0.35774   1.00
H3       0.05691    0.68822    0.31709   1.00
H3       0.00259    0.75172    0.40998   1.00
H3       0.07097    0.72434    0.38415   1.00
C4       0.47915    0.75000    0.25010   1.00
C4       0.52085    0.75000    0.24990   1.00
C3       0.45708    0.72494    0.27423   1.00
C3       0.54225    0.77918    0.26958   1.00
C3       0.45816    0.77568    0.22562   1.00
C3a      0.54263    0.72032    0.23034   1.00
C2       0.39483    0.75084    0.24875   1.00
C2       0.60517    0.74946    0.25137   1.00
C3       0.41566    0.72540    0.27350   1.00
C3       0.58359    0.77885    0.27028   1.00
C3       0.41680    0.77596    0.22484   1.00
C3       0.58415    0.72045    0.23149   1.00
H1       0.47192    0.70495    0.29367   1.00
H1       0.52685    0.80223    0.28477   1.00
H1       0.39968    0.70573    0.29235   1.00
H1       0.59895    0.80170    0.28578   1.00
H1       0.40179    0.79569    0.20527   1.00
H1       0.60043    0.69793    0.21647   1.00
C5       0.52239    0.68854    0.20726   1.00
H1       0.47401    0.79492    0.20621   1.00
H2       0.54354    0.66599    0.19745   1.00
H2       0.50103    0.67338    0.22637   1.00
N1       0.50292    0.70485    0.17294   1.00
C6       0.52012    0.72472    0.14372   1.00
C6       0.46460    0.70242    0.16462   1.00
C6       0.49243    0.73543    0.11657   1.00
C6       0.45711    0.72126    0.12987   1.00
H3       0.55099    0.73131    0.14226   1.00
H3       0.44309    0.68822    0.18291   1.00
H3       0.49741    0.75172    0.09002   1.00
H3       0.42903    0.72434    0.11585   1.00
C4       0.24990    0.52085    0.25000   1.00
C4       0.25010    0.47915    0.25000   1.00
C3       0.22577    0.54292    0.22494   1.00
C3       0.23042    0.45775    0.27918   1.00
C3       0.27438    0.54184    0.27568   1.00
C3a      0.26966    0.45737    0.22032   1.00
C2       0.25125    0.60517    0.25084   1.00
C2       0.24863    0.39483    0.24946   1.00
C3       0.22650    0.58434    0.22540   1.00
C3       0.22972    0.41641    0.27885   1.00
C3       0.27516    0.58320    0.27596   1.00
C3       0.26851    0.41585    0.22045   1.00
H1       0.20633    0.52808    0.20495   1.00
H1       0.21523    0.47315    0.30223   1.00
H1       0.20765    0.60032    0.20573   1.00
H1       0.21422    0.40105    0.30170   1.00
H1       0.29473    0.59821    0.29569   1.00
H1       0.28353    0.39957    0.19793   1.00
C5       0.29274    0.47761    0.18854   1.00
H1       0.29379    0.52599    0.29492   1.00
H2       0.30255    0.45646    0.16599   1.00
H2       0.27363    0.49897    0.17338   1.00
N1       0.32706    0.49708    0.20485   1.00
C6       0.35628    0.47988    0.22472   1.00
C6       0.33538    0.53540    0.20242   1.00
C6       0.38343    0.50757    0.23543   1.00
C6       0.37013    0.54289    0.22126   1.00
H3       0.35774    0.44901    0.23131   1.00
H3       0.31709    0.55691    0.18822   1.00
H3       0.40998    0.50259    0.25172   1.00
H3       0.38415    0.57097    0.22434   1.00
C4       0.25000    0.74990    0.02085   1.00
C4       0.25000    0.75010    -0.02085   1.00
C3       0.22494    0.72577    0.04292   1.00
C3       0.27918    0.73042    -0.04225   1.00
C3       0.27568    0.77438    0.04184   1.00
C3a      0.22032    0.76966    -0.04263   1.00
C2       0.25084    0.75125    0.10517   1.00
C2       0.24946    0.74863    -0.10517   1.00
C3       0.22540    0.72650    0.08434   1.00
C3       0.27885    0.72972    -0.08359   1.00
C3       0.27596    0.77516    0.08320   1.00
C3       0.22045    0.76851    -0.08415   1.00
H1       0.20495    0.70633    0.02808   1.00
H1       0.30223    0.71523    -0.02685   1.00
H1       0.20573    0.70765    0.10032   1.00
H1       0.30170    0.71422    -0.09895   1.00
H1       0.29569    0.79473    0.09821   1.00
H1       0.19793    0.78353    -0.10043   1.00
C5       0.18854    0.79274    -0.02239   1.00
H1       0.29492    0.79379    0.02599   1.00
H2       0.16599    0.80255    -0.04354   1.00
H2       0.17338    0.77363    -0.00103   1.00
N1       0.20485    0.82706    -0.00292   1.00
C6       0.22472    0.85628    -0.02012   1.00
C6       0.20242    0.83538    0.03540   1.00
C6       0.23543    0.88343    0.00757   1.00
C6       0.22126    0.87013    0.04289   1.00
H3       0.23131    0.85774    -0.05099   1.00
H3       0.18822    0.81709    0.05691   1.00
H3       0.25172    0.90998    0.00259   1.00
H3       0.22434    0.88415    0.07097   1.00
C4       0.75000    0.25010    0.47915   1.00
C4       0.75000    0.24990    0.52085   1.00
C3       0.72494    0.27423    0.45708   1.00
C3       0.77918    0.26958    0.54225   1.00
C3       0.77568    0.22562    0.45816   1.00
C3a      0.72032    0.23034    0.54263   1.00
C2       0.75084    0.24875    0.39483   1.00
C2       0.74946    0.25137    0.60517   1.00
C3       0.72540    0.27350    0.41566   1.00
C3       0.77885    0.27028    0.58359   1.00
C3       0.77596    0.22484    0.41680   1.00
C3       0.72045    0.23149    0.58415   1.00
H1       0.70495    0.29367    0.47192   1.00
H1       0.80223    0.28477    0.52685   1.00
H1       0.70573    0.29235    0.39968   1.00
H1       0.80170    0.28578    0.59895   1.00
H1       0.79569    0.20527    0.40179   1.00
H1       0.69793    0.21647    0.60043   1.00
C5       0.68854    0.20726    0.52239   1.00
H1       0.79492    0.20621    0.47401   1.00
H2       0.66599    0.19745    0.54354   1.00
H2       0.67338    0.22637    0.50103   1.00
N1       0.70485    0.17294    0.50292   1.00
C6       0.72472    0.14372    0.52012   1.00
C6       0.70242    0.16462    0.46460   1.00
C6       0.73543    0.11657    0.49243   1.00
C6       0.72126    0.12987    0.45711   1.00
H3       0.73131    0.14226    0.55099   1.00
H3       0.68822    0.18291    0.44309   1.00
H3       0.75172    0.09002    0.49741   1.00
H3       0.72434    0.11585    0.42903   1.00
C4       0.75010    0.47915    0.25000   1.00
C4       0.74990    0.52085    0.25000   1.00
C3       0.77423    0.45708    0.22494   1.00
C3       0.76958    0.54225    0.27918   1.00
C3       0.72562    0.45816    0.27568   1.00
C3a      0.73034    0.54263    0.22032   1.00
C2       0.74875    0.39483    0.25084   1.00
C2       0.75137    0.60517    0.24946   1.00
C3       0.77350    0.41566    0.22540   1.00
C3       0.77028    0.58359    0.27885   1.00
C3       0.72484    0.41680    0.27596   1.00
C3       0.73149    0.58415    0.22045   1.00
H1       0.79367    0.47192    0.20495   1.00
H1       0.78477    0.52685    0.30223   1.00
H1       0.79235    0.39968    0.20573   1.00
H1       0.78578    0.59895    0.30170   1.00
H1       0.70527    0.40179    0.29569   1.00
H1       0.71647    0.60043    0.19793   1.00
C5       0.70726    0.52239    0.18854   1.00
H1       0.70621    0.47401    0.29492   1.00
H2       0.69745    0.54354    0.16599   1.00
H2       0.72637    0.50103    0.17338   1.00
N1       0.67294    0.50292    0.20485   1.00
C6       0.64372    0.52012    0.22472   1.00
C6       0.66462    0.46460    0.20242   1.00
C6       0.61657    0.49243    0.23543   1.00
C6       0.62987    0.45711    0.22126   1.00
H3       0.64226    0.55099    0.23131   1.00
H3       0.68291    0.44309    0.18822   1.00
H3       0.59002    0.49741    0.25172   1.00
H3       0.61585    0.42903    0.22434   1.00
C4       0.52085    0.25000    0.24990   1.00
C4       0.47915    0.25000    0.25010   1.00
C3       0.54292    0.22494    0.22577   1.00
C3       0.45775    0.27918    0.23042   1.00
C3       0.54184    0.27568    0.27438   1.00
C3a      0.45737    0.22032    0.26966   1.00
C2       0.60517    0.25084    0.25125   1.00
C2       0.39483    0.24946    0.24863   1.00
C3       0.58434    0.22540    0.22650   1.00
C3       0.41641    0.27885    0.22972   1.00
C3       0.58320    0.27596    0.27516   1.00
C3       0.41585    0.22045    0.26851   1.00
H1       0.52808    0.20495    0.20633   1.00
H1       0.47315    0.30223    0.21523   1.00
H1       0.60032    0.20573    0.20765   1.00
H1       0.40105    0.30170    0.21422   1.00
H1       0.59821    0.29569    0.29473   1.00
H1       0.39957    0.19793    0.28353   1.00
C5       0.47761    0.18854    0.29274   1.00
H1       0.52599    0.29492    0.29379   1.00
H2       0.45646    0.16599    0.30255   1.00
H2       0.49897    0.17338    0.27363   1.00
N1       0.49708    0.20485    0.32706   1.00
C6       0.47988    0.22472    0.35628   1.00
C6       0.53540    0.20242    0.33538   1.00
C6       0.50757    0.23543    0.38343   1.00
C6       0.54289    0.22126    0.37013   1.00
H3       0.44901    0.23131    0.35774   1.00
H3       0.55691    0.18822    0.31709   1.00
H3       0.50259    0.25172    0.40998   1.00
H3       0.57097    0.22434    0.38415   1.00
C4       0.97915    0.25000    0.25010   1.00
C4       1.02085    0.25000    0.24990   1.00
C3       0.95708    0.22494    0.27423   1.00
C3       1.04225    0.27918    0.26958   1.00
C3       0.95816    0.27568    0.22562   1.00
C3a      1.04263    0.22032    0.23034   1.00
C2       0.89483    0.25084    0.24875   1.00
C2       1.10517    0.24946    0.25137   1.00
C3       0.91566    0.22540    0.27350   1.00
C3       1.08359    0.27885    0.27028   1.00
C3       0.91680    0.27596    0.22484   1.00
C3       1.08415    0.22045    0.23149   1.00
H1       0.97192    0.20495    0.29367   1.00
H1       1.02685    0.30223    0.28477   1.00
H1       0.89968    0.20573    0.29235   1.00
H1       1.09895    0.30170    0.28578   1.00
H1       0.90179    0.29569    0.20527   1.00
H1       1.10043    0.19793    0.21647   1.00
C5       1.02239    0.18854    0.20726   1.00
H1       0.97401    0.29492    0.20621   1.00
H2       1.04354    0.16599    0.19745   1.00
H2       1.00103    0.17338    0.22637   1.00
N1       1.00292    0.20485    0.17294   1.00
C6       1.02012    0.22472    0.14372   1.00
C6       0.96460    0.20242    0.16462   1.00
C6       0.99243    0.23543    0.11657   1.00
C6       0.95711    0.22126    0.12987   1.00
H3       1.05099    0.23131    0.14226   1.00
H3       0.94309    0.18822    0.18291   1.00
H3       0.99741    0.25172    0.09002   1.00
H3       0.92903    0.22434    0.11585   1.00
C4       0.74990    0.02085    0.25000   1.00
C4       0.75010    -0.02085   0.25000   1.00
C3       0.72577    0.04292    0.22494   1.00
C3       0.73042    -0.04225   0.27918   1.00
C3       0.77438    0.04184    0.27568   1.00
C3a      0.76966    -0.04263   0.22032   1.00
C2       0.75125    0.10517    0.25084   1.00
C2       0.74863    -0.10517   0.24946   1.00
C3       0.72650    0.08434    0.22540   1.00
C3       0.72972    -0.08359   0.27885   1.00
C3       0.77516    0.08320    0.27596   1.00
C3       0.76851    -0.08415   0.22045   1.00
H1       0.70633    0.02808    0.20495   1.00
H1       0.71523    -0.02685   0.30223   1.00
H1       0.70765    0.10032    0.20573   1.00
H1       0.71422    -0.09895   0.30170   1.00
H1       0.79473    0.09821    0.29569   1.00
H1       0.78353    -0.10043   0.19793   1.00
C5       0.79274    -0.02239   0.18854   1.00
H1       0.79379    0.02599    0.29492   1.00
H2       0.80255    -0.04354   0.16599   1.00
H2       0.77363    -0.00103   0.17338   1.00
N1       0.82706    -0.00292   0.20485   1.00
C6       0.85628    -0.02012   0.22472   1.00
C6       0.83538    0.03540    0.20242   1.00
C6       0.88343    0.00757    0.23543   1.00
C6       0.87013    0.04289    0.22126   1.00
H3       0.85774    -0.05099   0.23131   1.00
H3       0.81709    0.05691    0.18822   1.00
H3       0.90998    0.00259    0.25172   1.00
H3       0.88415    0.07097    0.22434   1.00
C4       0.75000    0.24990    0.02085   1.00
C4       0.75000    0.25010    -0.02085   1.00
C3       0.72494    0.22577    0.04292   1.00
C3       0.77918    0.23042    -0.04225   1.00
C3       0.77568    0.27438    0.04184   1.00
C3a      0.72032    0.26966    -0.04263   1.00
C2       0.75084    0.25125    0.10517   1.00
C2       0.74946    0.24863    -0.10517   1.00
C3       0.72540    0.22650    0.08434   1.00
C3       0.77885    0.22972    -0.08359   1.00
C3       0.77596    0.27516    0.08320   1.00
C3       0.72045    0.26851    -0.08415   1.00
H1       0.70495    0.20633    0.02808   1.00
H1       0.80223    0.21523    -0.02685   1.00
H1       0.70573    0.20765    0.10032   1.00
H1       0.80170    0.21422    -0.09895   1.00
H1       0.79569    0.29473    0.09821   1.00
H1       0.69793    0.28353    -0.10043   1.00
C5       0.68854    0.29274    -0.02239   1.00
H1       0.79492    0.29379    0.02599   1.00
H2       0.66599    0.30255    -0.04354   1.00
H2       0.67338    0.27363    -0.00103   1.00
N1       0.70485    0.32706    -0.00292   1.00
C6       0.72472    0.35628    -0.02012   1.00
C6       0.70242    0.33538    0.03540   1.00
C6       0.73543    0.38343    0.00757   1.00
C6       0.72126    0.37013    0.04289   1.00
H3       0.73131    0.35774    -0.05099   1.00
H3       0.68822    0.31709    0.05691   1.00
H3       0.75172    0.40998    0.00259   1.00
H3       0.72434    0.38415    0.07097   1.00
C4       1.00000    1.00010    1.22915   1.00
C4       1.00000    0.99990    1.27085   1.00
C3       0.97494    1.02423    1.20708   1.00
C3       1.02918    1.01958    1.29225   1.00
C3       1.02568    0.97562    1.20816   1.00
C3a      0.97032    0.98034    1.29263   1.00
C2       1.00084    0.99875    1.14483   1.00
C2       0.99946    1.00137    1.35517   1.00
C3       0.97540    1.02350    1.16566   1.00
C3       1.02885    1.02028    1.33359   1.00
C3       1.02596    0.97484    1.16680   1.00
C3       0.97045    0.98149    1.33415   1.00
H1       0.95495    1.04367    1.22192   1.00
H1       1.05223    1.03477    1.27685   1.00
H1       0.95573    1.04235    1.14968   1.00
H1       1.05170    1.03578    1.34895   1.00
H1       1.04569    0.95527    1.15179   1.00
H1       0.94793    0.96647    1.35043   1.00
C5       0.93854    0.95726    1.27239   1.00
H1       1.04492    0.95621    1.22401   1.00
H2       0.91599    0.94745    1.29354   1.00
H2       0.92338    0.97637    1.25103   1.00
N1       0.95485    0.92294    1.25292   1.00
C6       0.97472    0.89372    1.27012   1.00
C6       0.95242    0.91462    1.21460   1.00
C6       0.98543    0.86657    1.24243   1.00
C6       0.97126    0.87987    1.20711   1.00
H3       0.98131    0.89226    1.30099   1.00
H3       0.93822    0.93291    1.19309   1.00
H3       1.00172    0.84002    1.24741   1.00
H3       0.97434    0.86585    1.17903   1.00
C4       1.00010    1.22915    1.00000   1.00
C4       0.99990    1.27085    1.00000   1.00
C3       1.02423    1.20708    0.97494   1.00
C3       1.01958    1.29225    1.02918   1.00
C3       0.97562    1.20816    1.02568   1.00
C3a      0.98034    1.29263    0.97032   1.00
C2       0.99875    1.14483    1.00084   1.00
C2       1.00137    1.35517    0.99946   1.00
C3       1.02350    1.16566    0.97540   1.00
C3       1.02028    1.33359    1.02885   1.00
C3       0.97484    1.16680    1.02596   1.00
C3       0.98149    1.33415    0.97045   1.00
H1       1.04367    1.22192    0.95495   1.00
H1       1.03477    1.27685    1.05223   1.00
H1       1.04235    1.14968    0.95573   1.00
H1       1.03578    1.34895    1.05170   1.00
H1       0.95527    1.15179    1.04569   1.00
H1       0.96647    1.35043    0.94793   1.00
C5       0.95726    1.27239    0.93854   1.00
H1       0.95621    1.22401    1.04492   1.00
H2       0.94745    1.29354    0.91599   1.00
H2       0.97637    1.25103    0.92338   1.00
N1       0.92294    1.25292    0.95485   1.00
C6       0.89372    1.27012    0.97472   1.00
C6       0.91462    1.21460    0.95242   1.00
C6       0.86657    1.24243    0.98543   1.00
C6       0.87987    1.20711    0.97126   1.00
H3       0.89226    1.30099    0.98131   1.00
H3       0.93291    1.19309    0.93822   1.00
H3       0.84002    1.24741    1.00172   1.00
H3       0.86585    1.17903    0.97434   1.00
C4       0.77085    1.00000    0.99990   1.00
C4       0.72915    1.00000    1.00010   1.00
C3       0.79292    0.97494    0.97577   1.00
C3       0.70775    1.02918    0.98042   1.00
C3       0.79184    1.02568    1.02438   1.00
C3a      0.70737    0.97032    1.01966   1.00
C2       0.85517    1.00084    1.00125   1.00
C2       0.64483    0.99946    0.99863   1.00
C3       0.83434    0.97540    0.97650   1.00
C3       0.66641    1.02885    0.97972   1.00
C3       0.83320    1.02596    1.02516   1.00
C3       0.66585    0.97045    1.01851   1.00
H1       0.77808    0.95495    0.95633   1.00
H1       0.72315    1.05223    0.96523   1.00
H1       0.85032    0.95573    0.95765   1.00
H1       0.65105    1.05170    0.96422   1.00
H1       0.84821    1.04569    1.04473   1.00
H1       0.64957    0.94793    1.03353   1.00
C5       0.72761    0.93854    1.04274   1.00
H1       0.77599    1.04492    1.04379   1.00
H2       0.70646    0.91599    1.05255   1.00
H2       0.74897    0.92338    1.02363   1.00
N1       0.74708    0.95485    1.07706   1.00
C6       0.72988    0.97472    1.10628   1.00
C6       0.78540    0.95242    1.08538   1.00
C6       0.75757    0.98543    1.13343   1.00
C6       0.79289    0.97126    1.12013   1.00
H3       0.69901    0.98131    1.10774   1.00
H3       0.80691    0.93822    1.06709   1.00
H3       0.75259    1.00172    1.15998   1.00
H3       0.82097    0.97434    1.13415   1.00
C4       1.22915    1.00000    1.00010   1.00
C4       1.27085    1.00000    0.99990   1.00
C3       1.20708    0.97494    1.02423   1.00
C3       1.29225    1.02918    1.01958   1.00
C3       1.20816    1.02568    0.97562   1.00
C3a      1.29263    0.97032    0.98034   1.00
C2       1.14483    1.00084    0.99875   1.00
C2       1.35517    0.99946    1.00137   1.00
C3       1.16566    0.97540    1.02350   1.00
C3       1.33359    1.02885    1.02028   1.00
C3       1.16680    1.02596    0.97484   1.00
C3       1.33415    0.97045    0.98149   1.00
H1       1.22192    0.95495    1.04367   1.00
H1       1.27685    1.05223    1.03477   1.00
H1       1.14968    0.95573    1.04235   1.00
H1       1.34895    1.05170    1.03578   1.00
H1       1.15179    1.04569    0.95527   1.00
H1       1.35043    0.94793    0.96647   1.00
C5       1.27239    0.93854    0.95726   1.00
H1       1.22401    1.04492    0.95621   1.00
H2       1.29354    0.91599    0.94745   1.00
H2       1.25103    0.92338    0.97637   1.00
N1       1.25292    0.95485    0.92294   1.00
C6       1.27012    0.97472    0.89372   1.00
C6       1.21460    0.95242    0.91462   1.00
C6       1.24243    0.98543    0.86657   1.00
C6       1.20711    0.97126    0.87987   1.00
H3       1.30099    0.98131    0.89226   1.00
H3       1.19309    0.93822    0.93291   1.00
H3       1.24741    1.00172    0.84002   1.00
H3       1.17903    0.97434    0.86585   1.00
C4       0.99990    0.77085    1.00000   1.00
C4       1.00010    0.72915    1.00000   1.00
C3       0.97577    0.79292    0.97494   1.00
C3       0.98042    0.70775    1.02918   1.00
C3       1.02438    0.79184    1.02568   1.00
C3a      1.01966    0.70737    0.97032   1.00
C2       1.00125    0.85517    1.00084   1.00
C2       0.99863    0.64483    0.99946   1.00
C3       0.97650    0.83434    0.97540   1.00
C3       0.97972    0.66641    1.02885   1.00
C3       1.02516    0.83320    1.02596   1.00
C3       1.01851    0.66585    0.97045   1.00
H1       0.95633    0.77808    0.95495   1.00
H1       0.96523    0.72315    1.05223   1.00
H1       0.95765    0.85032    0.95573   1.00
H1       0.96422    0.65105    1.05170   1.00
H1       1.04473    0.84821    1.04569   1.00
H1       1.03353    0.64957    0.94793   1.00
C5       1.04274    0.72761    0.93854   1.00
H1       1.04379    0.77599    1.04492   1.00
H2       1.05255    0.70646    0.91599   1.00
H2       1.02363    0.74897    0.92338   1.00
N1       1.07706    0.74708    0.95485   1.00
C6       1.10628    0.72988    0.97472   1.00
C6       1.08538    0.78540    0.95242   1.00
C6       1.13343    0.75757    0.98543   1.00
C6       1.12013    0.79289    0.97126   1.00
H3       1.10774    0.69901    0.98131   1.00
H3       1.06709    0.80691    0.93822   1.00
H3       1.15998    0.75259    1.00172   1.00
H3       1.13415    0.82097    0.97434   1.00
C4       1.00000    0.99990    0.77085   1.00
C4       1.00000    1.00010    0.72915   1.00
C3       0.97494    0.97577    0.79292   1.00
C3       1.02918    0.98042    0.70775   1.00
C3       1.02568    1.02438    0.79184   1.00
C3a      0.97032    1.01966    0.70737   1.00
C2       1.00084    1.00125    0.85517   1.00
C2       0.99946    0.99863    0.64483   1.00
C3       0.97540    0.97650    0.83434   1.00
C3       1.02885    0.97972    0.66641   1.00
C3       1.02596    1.02516    0.83320   1.00
C3       0.97045    1.01851    0.66585   1.00
H1       0.95495    0.95633    0.77808   1.00
H1       1.05223    0.96523    0.72315   1.00
H1       0.95573    0.95765    0.85032   1.00
H1       1.05170    0.96422    0.65105   1.00
H1       1.04569    1.04473    0.84821   1.00
H1       0.94793    1.03353    0.64957   1.00
C5       0.93854    1.04274    0.72761   1.00
H1       1.04492    1.04379    0.77599   1.00
H2       0.91599    1.05255    0.70646   1.00
H2       0.92338    1.02363    0.74897   1.00
N1       0.95485    1.07706    0.74708   1.00
C6       0.97472    1.10628    0.72988   1.00
C6       0.95242    1.08538    0.78540   1.00
C6       0.98543    1.13343    0.75757   1.00
C6       0.97126    1.12013    0.79289   1.00
H3       0.98131    1.10774    0.69901   1.00
H3       0.93822    1.06709    0.80691   1.00
H3       1.00172    1.15998    0.75259   1.00
H3       0.97434    1.13415    0.82097   1.00
C4       0.50000    0.50010    1.22915   1.00
C4       0.50000    0.49990    1.27085   1.00
C3       0.47494    0.52423    1.20708   1.00
C3       0.52918    0.51958    1.29225   1.00
C3       0.52568    0.47562    1.20816   1.00
C3a      0.47032    0.48034    1.29263   1.00
C2       0.50084    0.49875    1.14483   1.00
C2       0.49946    0.50137    1.35517   1.00
C3       0.47540    0.52350    1.16566   1.00
C3       0.52885    0.52028    1.33359   1.00
C3       0.52596    0.47484    1.16680   1.00
C3       0.47045    0.48149    1.33415   1.00
H1       0.45495    0.54367    1.22192   1.00
H1       0.55223    0.53477    1.27685   1.00
H1       0.45573    0.54235    1.14968   1.00
H1       0.55170    0.53578    1.34895   1.00
H1       0.54569    0.45527    1.15179   1.00
H1       0.44793    0.46647    1.35043   1.00
C5       0.43854    0.45726    1.27239   1.00
H1       0.54492    0.45621    1.22401   1.00
H2       0.41599    0.44745    1.29354   1.00
H2       0.42338    0.47637    1.25103   1.00
N1       0.45485    0.42294    1.25292   1.00
C6       0.47472    0.39372    1.27012   1.00
C6       0.45242    0.41462    1.21460   1.00
C6       0.48543    0.36657    1.24243   1.00
C6       0.47126    0.37987    1.20711   1.00
H3       0.48131    0.39226    1.30099   1.00
H3       0.43822    0.43291    1.19309   1.00
H3       0.50172    0.34002    1.24741   1.00
H3       0.47434    0.36585    1.17903   1.00
C4       0.50010    0.72915    1.00000   1.00
C4       0.49990    0.77085    1.00000   1.00
C3       0.52423    0.70708    0.97494   1.00
C3       0.51958    0.79225    1.02918   1.00
C3       0.47562    0.70816    1.02568   1.00
C3a      0.48034    0.79263    0.97032   1.00
C2       0.49875    0.64483    1.00084   1.00
C2       0.50137    0.85517    0.99946   1.00
C3       0.52350    0.66566    0.97540   1.00
C3       0.52028    0.83359    1.02885   1.00
C3       0.47484    0.66680    1.02596   1.00
C3       0.48149    0.83415    0.97045   1.00
H1       0.54367    0.72192    0.95495   1.00
H1       0.53477    0.77685    1.05223   1.00
H1       0.54235    0.64968    0.95573   1.00
H1       0.53578    0.84895    1.05170   1.00
H1       0.45527    0.65179    1.04569   1.00
H1       0.46647    0.85043    0.94793   1.00
C5       0.45726    0.77239    0.93854   1.00
H1       0.45621    0.72401    1.04492   1.00
H2       0.44745    0.79354    0.91599   1.00
H2       0.47637    0.75103    0.92338   1.00
N1       0.42294    0.75292    0.95485   1.00
C6       0.39372    0.77012    0.97472   1.00
C6       0.41462    0.71460    0.95242   1.00
C6       0.36657    0.74243    0.98543   1.00
C6       0.37987    0.70711    0.97126   1.00
H3       0.39226    0.80099    0.98131   1.00
H3       0.43291    0.69309    0.93822   1.00
H3       0.34002    0.74741    1.00172   1.00
H3       0.36585    0.67903    0.97434   1.00
C4       0.27085    0.50000    0.99990   1.00
C4       0.22915    0.50000    1.00010   1.00
C3       0.29292    0.47494    0.97577   1.00
C3       0.20775    0.52918    0.98042   1.00
C3       0.29184    0.52568    1.02438   1.00
C3a      0.20737    0.47032    1.01966   1.00
C2       0.35517    0.50084    1.00125   1.00
C2       0.14483    0.49946    0.99863   1.00
C3       0.33434    0.47540    0.97650   1.00
C3       0.16641    0.52885    0.97972   1.00
C3       0.33320    0.52596    1.02516   1.00
C3       0.16585    0.47045    1.01851   1.00
H1       0.27808    0.45495    0.95633   1.00
H1       0.22315    0.55223    0.96523   1.00
H1       0.35032    0.45573    0.95765   1.00
H1       0.15105    0.55170    0.96422   1.00
H1       0.34821    0.54569    1.04473   1.00
H1       0.14957    0.44793    1.03353   1.00
C5       0.22761    0.43854    1.04274   1.00
H1       0.27599    0.54492    1.04379   1.00
H2       0.20646    0.41599    1.05255   1.00
H2       0.24897    0.42338    1.02363   1.00
N1       0.24708    0.45485    1.07706   1.00
C6       0.22988    0.47472    1.10628   1.00
C6       0.28540    0.45242    1.08538   1.00
C6       0.25757    0.48543    1.13343   1.00
C6       0.29289    0.47126    1.12013   1.00
H3       0.19901    0.48131    1.10774   1.00
H3       0.30691    0.43822    1.06709   1.00
H3       0.25259    0.50172    1.15998   1.00
H3       0.32097    0.47434    1.13415   1.00
C4       0.72915    0.50000    1.00010   1.00
C4       0.77085    0.50000    0.99990   1.00
C3       0.70708    0.47494    1.02423   1.00
C3       0.79225    0.52918    1.01958   1.00
C3       0.70816    0.52568    0.97562   1.00
C3a      0.79263    0.47032    0.98034   1.00
C2       0.64483    0.50084    0.99875   1.00
C2       0.85517    0.49946    1.00137   1.00
C3       0.66566    0.47540    1.02350   1.00
C3       0.83359    0.52885    1.02028   1.00
C3       0.66680    0.52596    0.97484   1.00
C3       0.83415    0.47045    0.98149   1.00
H1       0.72192    0.45495    1.04367   1.00
H1       0.77685    0.55223    1.03477   1.00
H1       0.64968    0.45573    1.04235   1.00
H1       0.84895    0.55170    1.03578   1.00
H1       0.65179    0.54569    0.95527   1.00
H1       0.85043    0.44793    0.96647   1.00
C5       0.77239    0.43854    0.95726   1.00
H1       0.72401    0.54492    0.95621   1.00
H2       0.79354    0.41599    0.94745   1.00
H2       0.75103    0.42338    0.97637   1.00
N1       0.75292    0.45485    0.92294   1.00
C6       0.77012    0.47472    0.89372   1.00
C6       0.71460    0.45242    0.91462   1.00
C6       0.74243    0.48543    0.86657   1.00
C6       0.70711    0.47126    0.87987   1.00
H3       0.80099    0.48131    0.89226   1.00
H3       0.69309    0.43822    0.93291   1.00
H3       0.74741    0.50172    0.84002   1.00
H3       0.67903    0.47434    0.86585   1.00
C4       0.49990    0.27085    1.00000   1.00
C4       0.50010    0.22915    1.00000   1.00
C3       0.47577    0.29292    0.97494   1.00
C3       0.48042    0.20775    1.02918   1.00
C3       0.52438    0.29184    1.02568   1.00
C3a      0.51966    0.20737    0.97032   1.00
C2       0.50125    0.35517    1.00084   1.00
C2       0.49863    0.14483    0.99946   1.00
C3       0.47650    0.33434    0.97540   1.00
C3       0.47972    0.16641    1.02885   1.00
C3       0.52516    0.33320    1.02596   1.00
C3       0.51851    0.16585    0.97045   1.00
H1       0.45633    0.27808    0.95495   1.00
H1       0.46523    0.22315    1.05223   1.00
H1       0.45765    0.35032    0.95573   1.00
H1       0.46422    0.15105    1.05170   1.00
H1       0.54473    0.34821    1.04569   1.00
H1       0.53353    0.14957    0.94793   1.00
C5       0.54274    0.22761    0.93854   1.00
H1       0.54379    0.27599    1.04492   1.00
H2       0.55255    0.20646    0.91599   1.00
H2       0.52363    0.24897    0.92338   1.00
N1       0.57706    0.24708    0.95485   1.00
C6       0.60628    0.22988    0.97472   1.00
C6       0.58538    0.28540    0.95242   1.00
C6       0.63343    0.25757    0.98543   1.00
C6       0.62013    0.29289    0.97126   1.00
H3       0.60774    0.19901    0.98131   1.00
H3       0.56709    0.30691    0.93822   1.00
H3       0.65998    0.25259    1.00172   1.00
H3       0.63415    0.32097    0.97434   1.00
C4       0.50000    0.49990    0.77085   1.00
C4       0.50000    0.50010    0.72915   1.00
C3       0.47494    0.47577    0.79292   1.00
C3       0.52918    0.48042    0.70775   1.00
C3       0.52568    0.52438    0.79184   1.00
C3a      0.47032    0.51966    0.70737   1.00
C2       0.50084    0.50125    0.85517   1.00
C2       0.49946    0.49863    0.64483   1.00
C3       0.47540    0.47650    0.83434   1.00
C3       0.52885    0.47972    0.66641   1.00
C3       0.52596    0.52516    0.83320   1.00
C3       0.47045    0.51851    0.66585   1.00
H1       0.45495    0.45633    0.77808   1.00
H1       0.55223    0.46523    0.72315   1.00
H1       0.45573    0.45765    0.85032   1.00
H1       0.55170    0.46422    0.65105   1.00
H1       0.54569    0.54473    0.84821   1.00
H1       0.44793    0.53353    0.64957   1.00
C5       0.43854    0.54274    0.72761   1.00
H1       0.54492    0.54379    0.77599   1.00
H2       0.41599    0.55255    0.70646   1.00
H2       0.42338    0.52363    0.74897   1.00
N1       0.45485    0.57706    0.74708   1.00
C6       0.47472    0.60628    0.72988   1.00
C6       0.45242    0.58538    0.78540   1.00
C6       0.48543    0.63343    0.75757   1.00
C6       0.47126    0.62013    0.79289   1.00
H3       0.48131    0.60774    0.69901   1.00
H3       0.43822    0.56709    0.80691   1.00
H3       0.50172    0.65998    0.75259   1.00
H3       0.47434    0.63415    0.82097   1.00
C4       0.50000    1.00010    0.72915   1.00
C4       0.50000    0.99990    0.77085   1.00
C3       0.47494    1.02423    0.70708   1.00
C3       0.52918    1.01958    0.79225   1.00
C3       0.52568    0.97562    0.70816   1.00
C3a      0.47032    0.98034    0.79263   1.00
C2       0.50084    0.99875    0.64483   1.00
C2       0.49946    1.00137    0.85517   1.00
C3       0.47540    1.02350    0.66566   1.00
C3       0.52885    1.02028    0.83359   1.00
C3       0.52596    0.97484    0.66680   1.00
C3       0.47045    0.98149    0.83415   1.00
H1       0.45495    1.04367    0.72192   1.00
H1       0.55223    1.03477    0.77685   1.00
H1       0.45573    1.04235    0.64968   1.00
H1       0.55170    1.03578    0.84895   1.00
H1       0.54569    0.95527    0.65179   1.00
H1       0.44793    0.96647    0.85043   1.00
C5       0.43854    0.95726    0.77239   1.00
H1       0.54492    0.95621    0.72401   1.00
H2       0.41599    0.94745    0.79354   1.00
H2       0.42338    0.97637    0.75103   1.00
N1       0.45485    0.92294    0.75292   1.00
C6       0.47472    0.89372    0.77012   1.00
C6       0.45242    0.91462    0.71460   1.00
C6       0.48543    0.86657    0.74243   1.00
C6       0.47126    0.87987    0.70711   1.00
H3       0.48131    0.89226    0.80099   1.00
H3       0.43822    0.93291    0.69309   1.00
H3       0.50172    0.84002    0.74741   1.00
H3       0.47434    0.86585    0.67903   1.00
C4       0.50010    1.22915    0.50000   1.00
C4       0.49990    1.27085    0.50000   1.00
C3       0.52423    1.20708    0.47494   1.00
C3       0.51958    1.29225    0.52918   1.00
C3       0.47562    1.20816    0.52568   1.00
C3a      0.48034    1.29263    0.47032   1.00
C2       0.49875    1.14483    0.50084   1.00
C2       0.50137    1.35517    0.49946   1.00
C3       0.52350    1.16566    0.47540   1.00
C3       0.52028    1.33359    0.52885   1.00
C3       0.47484    1.16680    0.52596   1.00
C3       0.48149    1.33415    0.47045   1.00
H1       0.54367    1.22192    0.45495   1.00
H1       0.53477    1.27685    0.55223   1.00
H1       0.54235    1.14968    0.45573   1.00
H1       0.53578    1.34895    0.55170   1.00
H1       0.45527    1.15179    0.54569   1.00
H1       0.46647    1.35043    0.44793   1.00
C5       0.45726    1.27239    0.43854   1.00
H1       0.45621    1.22401    0.54492   1.00
H2       0.44745    1.29354    0.41599   1.00
H2       0.47637    1.25103    0.42338   1.00
N1       0.42294    1.25292    0.45485   1.00
C6       0.39372    1.27012    0.47472   1.00
C6       0.41462    1.21460    0.45242   1.00
C6       0.36657    1.24243    0.48543   1.00
C6       0.37987    1.20711    0.47126   1.00
H3       0.39226    1.30099    0.48131   1.00
H3       0.43291    1.19309    0.43822   1.00
H3       0.34002    1.24741    0.50172   1.00
H3       0.36585    1.17903    0.47434   1.00
C4       0.27085    1.00000    0.49990   1.00
C4       0.22915    1.00000    0.50010   1.00
C3       0.29292    0.97494    0.47577   1.00
C3       0.20775    1.02918    0.48042   1.00
C3       0.29184    1.02568    0.52438   1.00
C3a      0.20737    0.97032    0.51966   1.00
C2       0.35517    1.00084    0.50125   1.00
C2       0.14483    0.99946    0.49863   1.00
C3       0.33434    0.97540    0.47650   1.00
C3       0.16641    1.02885    0.47972   1.00
C3       0.33320    1.02596    0.52516   1.00
C3       0.16585    0.97045    0.51851   1.00
H1       0.27808    0.95495    0.45633   1.00
H1       0.22315    1.05223    0.46523   1.00
H1       0.35032    0.95573    0.45765   1.00
H1       0.15105    1.05170    0.46422   1.00
H1       0.34821    1.04569    0.54473   1.00
H1       0.14957    0.94793    0.53353   1.00
C5       0.22761    0.93854    0.54274   1.00
H1       0.27599    1.04492    0.54379   1.00
H2       0.20646    0.91599    0.55255   1.00
H2       0.24897    0.92338    0.52363   1.00
N1       0.24708    0.95485    0.57706   1.00
C6       0.22988    0.97472    0.60628   1.00
C6       0.28540    0.95242    0.58538   1.00
C6       0.25757    0.98543    0.63343   1.00
C6       0.29289    0.97126    0.62013   1.00
H3       0.19901    0.98131    0.60774   1.00
H3       0.30691    0.93822    0.56709   1.00
H3       0.25259    1.00172    0.65998   1.00
H3       0.32097    0.97434    0.63415   1.00
C4       0.72915    1.00000    0.50010   1.00
C4       0.77085    1.00000    0.49990   1.00
C3       0.70708    0.97494    0.52423   1.00
C3       0.79225    1.02918    0.51958   1.00
C3       0.70816    1.02568    0.47562   1.00
C3a      0.79263    0.97032    0.48034   1.00
C2       0.64483    1.00084    0.49875   1.00
C2       0.85517    0.99946    0.50137   1.00
C3       0.66566    0.97540    0.52350   1.00
C3       0.83359    1.02885    0.52028   1.00
C3       0.66680    1.02596    0.47484   1.00
C3       0.83415    0.97045    0.48149   1.00
H1       0.72192    0.95495    0.54367   1.00
H1       0.77685    1.05223    0.53477   1.00
H1       0.64968    0.95573    0.54235   1.00
H1       0.84895    1.05170    0.53578   1.00
H1       0.65179    1.04569    0.45527   1.00
H1       0.85043    0.94793    0.46647   1.00
C5       0.77239    0.93854    0.45726   1.00
H1       0.72401    1.04492    0.45621   1.00
H2       0.79354    0.91599    0.44745   1.00
H2       0.75103    0.92338    0.47637   1.00
N1       0.75292    0.95485    0.42294   1.00
C6       0.77012    0.97472    0.39372   1.00
C6       0.71460    0.95242    0.41462   1.00
C6       0.74243    0.98543    0.36657   1.00
C6       0.70711    0.97126    0.37987   1.00
H3       0.80099    0.98131    0.39226   1.00
H3       0.69309    0.93822    0.43291   1.00
H3       0.74741    1.00172    0.34002   1.00
H3       0.67903    0.97434    0.36585   1.00
C4       0.49990    0.77085    0.50000   1.00
C4       0.50010    0.72915    0.50000   1.00
C3       0.47577    0.79292    0.47494   1.00
C3       0.48042    0.70775    0.52918   1.00
C3       0.52438    0.79184    0.52568   1.00
C3a      0.51966    0.70737    0.47032   1.00
C2       0.50125    0.85517    0.50084   1.00
C2       0.49863    0.64483    0.49946   1.00
C3       0.47650    0.83434    0.47540   1.00
C3       0.47972    0.66641    0.52885   1.00
C3       0.52516    0.83320    0.52596   1.00
C3       0.51851    0.66585    0.47045   1.00
H1       0.45633    0.77808    0.45495   1.00
H1       0.46523    0.72315    0.55223   1.00
H1       0.45765    0.85032    0.45573   1.00
H1       0.46422    0.65105    0.55170   1.00
H1       0.54473    0.84821    0.54569   1.00
H1       0.53353    0.64957    0.44793   1.00
C5       0.54274    0.72761    0.43854   1.00
H1       0.54379    0.77599    0.54492   1.00
H2       0.55255    0.70646    0.41599   1.00
H2       0.52363    0.74897    0.42338   1.00
N1       0.57706    0.74708    0.45485   1.00
C6       0.60628    0.72988    0.47472   1.00
C6       0.58538    0.78540    0.45242   1.00
C6       0.63343    0.75757    0.48543   1.00
C6       0.62013    0.79289    0.47126   1.00
H3       0.60774    0.69901    0.48131   1.00
H3       0.56709    0.80691    0.43822   1.00
H3       0.65998    0.75259    0.50172   1.00
H3       0.63415    0.82097    0.47434   1.00
C4       0.50000    0.99990    0.27085   1.00
C4       0.50000    1.00010    0.22915   1.00
C3       0.47494    0.97577    0.29292   1.00
C3       0.52918    0.98042    0.20775   1.00
C3       0.52568    1.02438    0.29184   1.00
C3a      0.47032    1.01966    0.20737   1.00
C2       0.50084    1.00125    0.35517   1.00
C2       0.49946    0.99863    0.14483   1.00
C3       0.47540    0.97650    0.33434   1.00
C3       0.52885    0.97972    0.16641   1.00
C3       0.52596    1.02516    0.33320   1.00
C3       0.47045    1.01851    0.16585   1.00
H1       0.45495    0.95633    0.27808   1.00
H1       0.55223    0.96523    0.22315   1.00
H1       0.45573    0.95765    0.35032   1.00
H1       0.55170    0.96422    0.15105   1.00
H1       0.54569    1.04473    0.34821   1.00
H1       0.44793    1.03353    0.14957   1.00
C5       0.43854    1.04274    0.22761   1.00
H1       0.54492    1.04379    0.27599   1.00
H2       0.41599    1.05255    0.20646   1.00
H2       0.42338    1.02363    0.24897   1.00
N1       0.45485    1.07706    0.24708   1.00
C6       0.47472    1.10628    0.22988   1.00
C6       0.45242    1.08538    0.28540   1.00
C6       0.48543    1.13343    0.25757   1.00
C6       0.47126    1.12013    0.29289   1.00
H3       0.48131    1.10774    0.19901   1.00
H3       0.43822    1.06709    0.30691   1.00
H3       0.50172    1.15998    0.25259   1.00
H3       0.47434    1.13415    0.32097   1.00
C4       1.00000    0.50010    0.72915   1.00
C4       1.00000    0.49990    0.77085   1.00
C3       0.97494    0.52423    0.70708   1.00
C3       1.02918    0.51958    0.79225   1.00
C3       1.02568    0.47562    0.70816   1.00
C3a      0.97032    0.48034    0.79263   1.00
C2       1.00084    0.49875    0.64483   1.00
C2       0.99946    0.50137    0.85517   1.00
C3       0.97540    0.52350    0.66566   1.00
C3       1.02885    0.52028    0.83359   1.00
C3       1.02596    0.47484    0.66680   1.00
C3       0.97045    0.48149    0.83415   1.00
H1       0.95495    0.54367    0.72192   1.00
H1       1.05223    0.53477    0.77685   1.00
H1       0.95573    0.54235    0.64968   1.00
H1       1.05170    0.53578    0.84895   1.00
H1       1.04569    0.45527    0.65179   1.00
H1       0.94793    0.46647    0.85043   1.00
C5       0.93854    0.45726    0.77239   1.00
H1       1.04492    0.45621    0.72401   1.00
H2       0.91599    0.44745    0.79354   1.00
H2       0.92338    0.47637    0.75103   1.00
N1       0.95485    0.42294    0.75292   1.00
C6       0.97472    0.39372    0.77012   1.00
C6       0.95242    0.41462    0.71460   1.00
C6       0.98543    0.36657    0.74243   1.00
C6       0.97126    0.37987    0.70711   1.00
H3       0.98131    0.39226    0.80099   1.00
H3       0.93822    0.43291    0.69309   1.00
H3       1.00172    0.34002    0.74741   1.00
H3       0.97434    0.36585    0.67903   1.00
C4       1.00010    0.72915    0.50000   1.00
C4       0.99990    0.77085    0.50000   1.00
C3       1.02423    0.70708    0.47494   1.00
C3       1.01958    0.79225    0.52918   1.00
C3       0.97562    0.70816    0.52568   1.00
C3a      0.98034    0.79263    0.47032   1.00
C2       0.99875    0.64483    0.50084   1.00
C2       1.00137    0.85517    0.49946   1.00
C3       1.02350    0.66566    0.47540   1.00
C3       1.02028    0.83359    0.52885   1.00
C3       0.97484    0.66680    0.52596   1.00
C3       0.98149    0.83415    0.47045   1.00
H1       1.04367    0.72192    0.45495   1.00
H1       1.03477    0.77685    0.55223   1.00
H1       1.04235    0.64968    0.45573   1.00
H1       1.03578    0.84895    0.55170   1.00
H1       0.95527    0.65179    0.54569   1.00
H1       0.96647    0.85043    0.44793   1.00
C5       0.95726    0.77239    0.43854   1.00
H1       0.95621    0.72401    0.54492   1.00
H2       0.94745    0.79354    0.41599   1.00
H2       0.97637    0.75103    0.42338   1.00
N1       0.92294    0.75292    0.45485   1.00
C6       0.89372    0.77012    0.47472   1.00
C6       0.91462    0.71460    0.45242   1.00
C6       0.86657    0.74243    0.48543   1.00
C6       0.87987    0.70711    0.47126   1.00
H3       0.89226    0.80099    0.48131   1.00
H3       0.93291    0.69309    0.43822   1.00
H3       0.84002    0.74741    0.50172   1.00
H3       0.86585    0.67903    0.47434   1.00
C4       0.77085    0.50000    0.49990   1.00
C4       0.72915    0.50000    0.50010   1.00
C3       0.79292    0.47494    0.47577   1.00
C3       0.70775    0.52918    0.48042   1.00
C3       0.79184    0.52568    0.52438   1.00
C3a      0.70737    0.47032    0.51966   1.00
C2       0.85517    0.50084    0.50125   1.00
C2       0.64483    0.49946    0.49863   1.00
C3       0.83434    0.47540    0.47650   1.00
C3       0.66641    0.52885    0.47972   1.00
C3       0.83320    0.52596    0.52516   1.00
C3       0.66585    0.47045    0.51851   1.00
H1       0.77808    0.45495    0.45633   1.00
H1       0.72315    0.55223    0.46523   1.00
H1       0.85032    0.45573    0.45765   1.00
H1       0.65105    0.55170    0.46422   1.00
H1       0.84821    0.54569    0.54473   1.00
H1       0.64957    0.44793    0.53353   1.00
C5       0.72761    0.43854    0.54274   1.00
H1       0.77599    0.54492    0.54379   1.00
H2       0.70646    0.41599    0.55255   1.00
H2       0.74897    0.42338    0.52363   1.00
N1       0.74708    0.45485    0.57706   1.00
C6       0.72988    0.47472    0.60628   1.00
C6       0.78540    0.45242    0.58538   1.00
C6       0.75757    0.48543    0.63343   1.00
C6       0.79289    0.47126    0.62013   1.00
H3       0.69901    0.48131    0.60774   1.00
H3       0.80691    0.43822    0.56709   1.00
H3       0.75259    0.50172    0.65998   1.00
H3       0.82097    0.47434    0.63415   1.00
C4       1.22915    0.50000    0.50010   1.00
C4       1.27085    0.50000    0.49990   1.00
C3       1.20708    0.47494    0.52423   1.00
C3       1.29225    0.52918    0.51958   1.00
C3       1.20816    0.52568    0.47562   1.00
C3a      1.29263    0.47032    0.48034   1.00
C2       1.14483    0.50084    0.49875   1.00
C2       1.35517    0.49946    0.50137   1.00
C3       1.16566    0.47540    0.52350   1.00
C3       1.33359    0.52885    0.52028   1.00
C3       1.16680    0.52596    0.47484   1.00
C3       1.33415    0.47045    0.48149   1.00
H1       1.22192    0.45495    0.54367   1.00
H1       1.27685    0.55223    0.53477   1.00
H1       1.14968    0.45573    0.54235   1.00
H1       1.34895    0.55170    0.53578   1.00
H1       1.15179    0.54569    0.45527   1.00
H1       1.35043    0.44793    0.46647   1.00
C5       1.27239    0.43854    0.45726   1.00
H1       1.22401    0.54492    0.45621   1.00
H2       1.29354    0.41599    0.44745   1.00
H2       1.25103    0.42338    0.47637   1.00
N1       1.25292    0.45485    0.42294   1.00
C6       1.27012    0.47472    0.39372   1.00
C6       1.21460    0.45242    0.41462   1.00
C6       1.24243    0.48543    0.36657   1.00
C6       1.20711    0.47126    0.37987   1.00
H3       1.30099    0.48131    0.39226   1.00
H3       1.19309    0.43822    0.43291   1.00
H3       1.24741    0.50172    0.34002   1.00
H3       1.17903    0.47434    0.36585   1.00
C4       0.99990    0.27085    0.50000   1.00
C4       1.00010    0.22915    0.50000   1.00
C3       0.97577    0.29292    0.47494   1.00
C3       0.98042    0.20775    0.52918   1.00
C3       1.02438    0.29184    0.52568   1.00
C3a      1.01966    0.20737    0.47032   1.00
C2       1.00125    0.35517    0.50084   1.00
C2       0.99863    0.14483    0.49946   1.00
C3       0.97650    0.33434    0.47540   1.00
C3       0.97972    0.16641    0.52885   1.00
C3       1.02516    0.33320    0.52596   1.00
C3       1.01851    0.16585    0.47045   1.00
H1       0.95633    0.27808    0.45495   1.00
H1       0.96523    0.22315    0.55223   1.00
H1       0.95765    0.35032    0.45573   1.00
H1       0.96422    0.15105    0.55170   1.00
H1       1.04473    0.34821    0.54569   1.00
H1       1.03353    0.14957    0.44793   1.00
C5       1.04274    0.22761    0.43854   1.00
H1       1.04379    0.27599    0.54492   1.00
H2       1.05255    0.20646    0.41599   1.00
H2       1.02363    0.24897    0.42338   1.00
N1       1.07706    0.24708    0.45485   1.00
C6       1.10628    0.22988    0.47472   1.00
C6       1.08538    0.28540    0.45242   1.00
C6       1.13343    0.25757    0.48543   1.00
C6       1.12013    0.29289    0.47126   1.00
H3       1.10774    0.19901    0.48131   1.00
H3       1.06709    0.30691    0.43822   1.00
H3       1.15998    0.25259    0.50172   1.00
H3       1.13415    0.32097    0.47434   1.00
C4       1.00000    0.49990    0.27085   1.00
C4       1.00000    0.50010    0.22915   1.00
C3       0.97494    0.47577    0.29292   1.00
C3       1.02918    0.48042    0.20775   1.00
C3       1.02568    0.52438    0.29184   1.00
C3a      0.97032    0.51966    0.20737   1.00
C2       1.00084    0.50125    0.35517   1.00
C2       0.99946    0.49863    0.14483   1.00
C3       0.97540    0.47650    0.33434   1.00
C3       1.02885    0.47972    0.16641   1.00
C3       1.02596    0.52516    0.33320   1.00
C3       0.97045    0.51851    0.16585   1.00
H1       0.95495    0.45633    0.27808   1.00
H1       1.05223    0.46523    0.22315   1.00
H1       0.95573    0.45765    0.35032   1.00
H1       1.05170    0.46422    0.15105   1.00
H1       1.04569    0.54473    0.34821   1.00
H1       0.94793    0.53353    0.14957   1.00
C5       0.93854    0.54274    0.22761   1.00
H1       1.04492    0.54379    0.27599   1.00
H2       0.91599    0.55255    0.20646   1.00
H2       0.92338    0.52363    0.24897   1.00
N1       0.95485    0.57706    0.24708   1.00
C6       0.97472    0.60628    0.22988   1.00
C6       0.95242    0.58538    0.28540   1.00
C6       0.98543    0.63343    0.25757   1.00
C6       0.97126    0.62013    0.29289   1.00
H3       0.98131    0.60774    0.19901   1.00
H3       0.93822    0.56709    0.30691   1.00
H3       1.00172    0.65998    0.25259   1.00
H3       0.97434    0.63415    0.32097   1.00
