data_IRMOF10_SG202_interpen_Ligand1lp_label_i.

_audit_creation_method             'generated by an auxiliary program of Tobunporous'

_symmetry_space_group_name_H-M     'P 1'
_symmetry_Int_Tables_number        1
_symmetry_cell_setting             triclinic

_cell_length_a                    34.2800
_cell_length_b                    34.2800
_cell_length_c                    34.2800
_cell_angle_alpha                 90.0000
_cell_angle_beta                  90.0000
_cell_angle_gamma                 90.0000

loop_
_atom_site_label
_atom_site_fract_x
_atom_site_fract_y
_atom_site_fract_z
_atom_site_occupancy
O1       0.75000    0.75000    0.75000   1.00
Zn1      0.71720    0.78280    0.78280   1.00
Zn1      0.78280    0.71720    0.78280   1.00
Zn1      0.78280    0.78280    0.71720   1.00
Zn1      0.71720    0.71720    0.71720   1.00
O2       0.72650    0.77350    0.83820   1.00
O2       0.72650    0.83820    0.77350   1.00
O2       0.66180    0.77350    0.77350   1.00
O2       0.77350    0.72650    0.83820   1.00
O2       0.83820    0.72650    0.77350   1.00
O2       0.77350    0.66180    0.77350   1.00
O2       0.77350    0.83820    0.72650   1.00
O2       0.83820    0.77350    0.72650   1.00
O2       0.77350    0.77350    0.66180   1.00
O2       0.66180    0.72650    0.72650   1.00
O2       0.72650    0.66180    0.72650   1.00
O2       0.72650    0.72650    0.66180   1.00
C1       0.75000    0.75000    0.85520   1.00
C1       0.75000    0.85520    0.75000   1.00
C1       0.64480    0.75000    0.75000   1.00
C1       0.85520    0.75000    0.75000   1.00
C1       0.75000    0.64480    0.75000   1.00
C1       0.75000    0.75000    0.64480   1.00
O1       0.25000    0.25000    0.75000   1.00
Zn1      0.21720    0.28280    0.78280   1.00
Zn1      0.28280    0.21720    0.78280   1.00
Zn1      0.28280    0.28280    0.71720   1.00
Zn1      0.21720    0.21720    0.71720   1.00
O2       0.22650    0.27350    0.83820   1.00
O2       0.22650    0.33820    0.77350   1.00
O2       0.16180    0.27350    0.77350   1.00
O2       0.27350    0.22650    0.83820   1.00
O2       0.33820    0.22650    0.77350   1.00
O2       0.27350    0.16180    0.77350   1.00
O2       0.27350    0.33820    0.72650   1.00
O2       0.33820    0.27350    0.72650   1.00
O2       0.27350    0.27350    0.66180   1.00
O2       0.16180    0.22650    0.72650   1.00
O2       0.22650    0.16180    0.72650   1.00
O2       0.22650    0.22650    0.66180   1.00
C1       0.25000    0.25000    0.85520   1.00
C1       0.25000    0.35520    0.75000   1.00
C1       0.14480    0.25000    0.75000   1.00
C1       0.35520    0.25000    0.75000   1.00
C1       0.25000    0.14480    0.75000   1.00
C1       0.25000    0.25000    0.64480   1.00
O1       0.25000    0.75000    0.25000   1.00
Zn1      0.21720    0.78280    0.28280   1.00
Zn1      0.28280    0.71720    0.28280   1.00
Zn1      0.28280    0.78280    0.21720   1.00
Zn1      0.21720    0.71720    0.21720   1.00
O2       0.22650    0.77350    0.33820   1.00
O2       0.22650    0.83820    0.27350   1.00
O2       0.16180    0.77350    0.27350   1.00
O2       0.27350    0.72650    0.33820   1.00
O2       0.33820    0.72650    0.27350   1.00
O2       0.27350    0.66180    0.27350   1.00
O2       0.27350    0.83820    0.22650   1.00
O2       0.33820    0.77350    0.22650   1.00
O2       0.27350    0.77350    0.16180   1.00
O2       0.16180    0.72650    0.22650   1.00
O2       0.22650    0.66180    0.22650   1.00
O2       0.22650    0.72650    0.16180   1.00
C1       0.25000    0.75000    0.35520   1.00
C1       0.25000    0.85520    0.25000   1.00
C1       0.14480    0.75000    0.25000   1.00
C1       0.35520    0.75000    0.25000   1.00
C1       0.25000    0.64480    0.25000   1.00
C1       0.25000    0.75000    0.14480   1.00
O1       0.75000    0.25000    0.25000   1.00
Zn1      0.71720    0.28280    0.28280   1.00
Zn1      0.78280    0.21720    0.28280   1.00
Zn1      0.78280    0.28280    0.21720   1.00
Zn1      0.71720    0.21720    0.21720   1.00
O2       0.72650    0.27350    0.33820   1.00
O2       0.72650    0.33820    0.27350   1.00
O2       0.66180    0.27350    0.27350   1.00
O2       0.77350    0.22650    0.33820   1.00
O2       0.83820    0.22650    0.27350   1.00
O2       0.77350    0.16180    0.27350   1.00
O2       0.77350    0.33820    0.22650   1.00
O2       0.83820    0.27350    0.22650   1.00
O2       0.77350    0.27350    0.16180   1.00
O2       0.66180    0.22650    0.22650   1.00
O2       0.72650    0.16180    0.22650   1.00
O2       0.72650    0.22650    0.16180   1.00
C1       0.75000    0.25000    0.35520   1.00
C1       0.75000    0.35520    0.25000   1.00
C1       0.64480    0.25000    0.25000   1.00
C1       0.85520    0.25000    0.25000   1.00
C1       0.75000    0.14480    0.25000   1.00
C1       0.75000    0.25000    0.14480   1.00
O1       0.25000    0.25000    0.25000   1.00
Zn1      0.28280    0.21720    0.21720   1.00
Zn1      0.21720    0.28280    0.21720   1.00
Zn1      0.21720    0.21720    0.28280   1.00
Zn1      0.28280    0.28280    0.28280   1.00
O2       0.27350    0.22650    0.16180   1.00
O2       0.27350    0.16180    0.22650   1.00
O2       0.33820    0.22650    0.22650   1.00
O2       0.22650    0.27350    0.16180   1.00
O2       0.16180    0.27350    0.22650   1.00
O2       0.22650    0.33820    0.22650   1.00
O2       0.22650    0.16180    0.27350   1.00
O2       0.16180    0.22650    0.27350   1.00
O2       0.22650    0.22650    0.33820   1.00
O2       0.33820    0.27350    0.27350   1.00
O2       0.27350    0.33820    0.27350   1.00
O2       0.27350    0.27350    0.33820   1.00
C1       0.25000    0.25000    0.14480   1.00
C1       0.25000    0.14480    0.25000   1.00
C1       0.35520    0.25000    0.25000   1.00
C1       0.14480    0.25000    0.25000   1.00
C1       0.25000    0.35520    0.25000   1.00
C1       0.25000    0.25000    0.35520   1.00
O1       0.75000    0.75000    0.25000   1.00
Zn1      0.78280    0.71720    0.21720   1.00
Zn1      0.71720    0.78280    0.21720   1.00
Zn1      0.71720    0.71720    0.28280   1.00
Zn1      0.78280    0.78280    0.28280   1.00
O2       0.77350    0.72650    0.16180   1.00
O2       0.77350    0.66180    0.22650   1.00
O2       0.83820    0.72650    0.22650   1.00
O2       0.72650    0.77350    0.16180   1.00
O2       0.66180    0.77350    0.22650   1.00
O2       0.72650    0.83820    0.22650   1.00
O2       0.72650    0.66180    0.27350   1.00
O2       0.66180    0.72650    0.27350   1.00
O2       0.72650    0.72650    0.33820   1.00
O2       0.83820    0.77350    0.27350   1.00
O2       0.77350    0.83820    0.27350   1.00
O2       0.77350    0.77350    0.33820   1.00
C1       0.75000    0.75000    0.14480   1.00
C1       0.75000    0.64480    0.25000   1.00
C1       0.85520    0.75000    0.25000   1.00
C1       0.64480    0.75000    0.25000   1.00
C1       0.75000    0.85520    0.25000   1.00
C1       0.75000    0.75000    0.35520   1.00
O1       0.75000    0.25000    0.75000   1.00
Zn1      0.78280    0.21720    0.71720   1.00
Zn1      0.71720    0.28280    0.71720   1.00
Zn1      0.71720    0.21720    0.78280   1.00
Zn1      0.78280    0.28280    0.78280   1.00
O2       0.77350    0.22650    0.66180   1.00
O2       0.77350    0.16180    0.72650   1.00
O2       0.83820    0.22650    0.72650   1.00
O2       0.72650    0.27350    0.66180   1.00
O2       0.66180    0.27350    0.72650   1.00
O2       0.72650    0.33820    0.72650   1.00
O2       0.72650    0.16180    0.77350   1.00
O2       0.66180    0.22650    0.77350   1.00
O2       0.72650    0.22650    0.83820   1.00
O2       0.83820    0.27350    0.77350   1.00
O2       0.77350    0.33820    0.77350   1.00
O2       0.77350    0.27350    0.83820   1.00
C1       0.75000    0.25000    0.64480   1.00
C1       0.75000    0.14480    0.75000   1.00
C1       0.85520    0.25000    0.75000   1.00
C1       0.64480    0.25000    0.75000   1.00
C1       0.75000    0.35520    0.75000   1.00
C1       0.75000    0.25000    0.85520   1.00
O1       0.25000    0.75000    0.75000   1.00
Zn1      0.28280    0.71720    0.71720   1.00
Zn1      0.21720    0.78280    0.71720   1.00
Zn1      0.21720    0.71720    0.78280   1.00
Zn1      0.28280    0.78280    0.78280   1.00
O2       0.27350    0.72650    0.66180   1.00
O2       0.27350    0.66180    0.72650   1.00
O2       0.33820    0.72650    0.72650   1.00
O2       0.22650    0.77350    0.66180   1.00
O2       0.16180    0.77350    0.72650   1.00
O2       0.22650    0.83820    0.72650   1.00
O2       0.22650    0.66180    0.77350   1.00
O2       0.16180    0.72650    0.77350   1.00
O2       0.22650    0.72650    0.83820   1.00
O2       0.33820    0.77350    0.77350   1.00
O2       0.27350    0.83820    0.77350   1.00
O2       0.27350    0.77350    0.83820   1.00
C1       0.25000    0.75000    0.64480   1.00
C1       0.25000    0.64480    0.75000   1.00
C1       0.35520    0.75000    0.75000   1.00
C1       0.14480    0.75000    0.75000   1.00
C1       0.25000    0.85520    0.75000   1.00
C1       0.25000    0.75000    0.85520   1.00
O1       1.00000    1.00000    1.00000   1.00
Zn1      0.96720    1.03280    1.03280   1.00
Zn1      1.03280    0.96720    1.03280   1.00
Zn1      1.03280    1.03280    0.96720   1.00
Zn1      0.96720    0.96720    0.96720   1.00
O2       0.97650    1.02350    1.08820   1.00
O2       0.97650    1.08820    1.02350   1.00
O2       0.91180    1.02350    1.02350   1.00
O2       1.02350    0.97650    1.08820   1.00
O2       1.08820    0.97650    1.02350   1.00
O2       1.02350    0.91180    1.02350   1.00
O2       1.02350    1.08820    0.97650   1.00
O2       1.08820    1.02350    0.97650   1.00
O2       1.02350    1.02350    0.91180   1.00
O2       0.91180    0.97650    0.97650   1.00
O2       0.97650    0.91180    0.97650   1.00
O2       0.97650    0.97650    0.91180   1.00
C1       1.00000    1.00000    1.10520   1.00
C1       1.00000    1.10520    1.00000   1.00
C1       0.89480    1.00000    1.00000   1.00
C1       1.10520    1.00000    1.00000   1.00
C1       1.00000    0.89480    1.00000   1.00
C1       1.00000    1.00000    0.89480   1.00
O1       0.50000    0.50000    1.00000   1.00
Zn1      0.46720    0.53280    1.03280   1.00
Zn1      0.53280    0.46720    1.03280   1.00
Zn1      0.53280    0.53280    0.96720   1.00
Zn1      0.46720    0.46720    0.96720   1.00
O2       0.47650    0.52350    1.08820   1.00
O2       0.47650    0.58820    1.02350   1.00
O2       0.41180    0.52350    1.02350   1.00
O2       0.52350    0.47650    1.08820   1.00
O2       0.58820    0.47650    1.02350   1.00
O2       0.52350    0.41180    1.02350   1.00
O2       0.52350    0.58820    0.97650   1.00
O2       0.58820    0.52350    0.97650   1.00
O2       0.52350    0.52350    0.91180   1.00
O2       0.41180    0.47650    0.97650   1.00
O2       0.47650    0.41180    0.97650   1.00
O2       0.47650    0.47650    0.91180   1.00
C1       0.50000    0.50000    1.10520   1.00
C1       0.50000    0.60520    1.00000   1.00
C1       0.39480    0.50000    1.00000   1.00
C1       0.60520    0.50000    1.00000   1.00
C1       0.50000    0.39480    1.00000   1.00
C1       0.50000    0.50000    0.89480   1.00
O1       0.50000    1.00000    0.50000   1.00
Zn1      0.46720    1.03280    0.53280   1.00
Zn1      0.53280    0.96720    0.53280   1.00
Zn1      0.53280    1.03280    0.46720   1.00
Zn1      0.46720    0.96720    0.46720   1.00
O2       0.47650    1.02350    0.58820   1.00
O2       0.47650    1.08820    0.52350   1.00
O2       0.41180    1.02350    0.52350   1.00
O2       0.52350    0.97650    0.58820   1.00
O2       0.58820    0.97650    0.52350   1.00
O2       0.52350    0.91180    0.52350   1.00
O2       0.52350    1.08820    0.47650   1.00
O2       0.58820    1.02350    0.47650   1.00
O2       0.52350    1.02350    0.41180   1.00
O2       0.41180    0.97650    0.47650   1.00
O2       0.47650    0.91180    0.47650   1.00
O2       0.47650    0.97650    0.41180   1.00
C1       0.50000    1.00000    0.60520   1.00
C1       0.50000    1.10520    0.50000   1.00
C1       0.39480    1.00000    0.50000   1.00
C1       0.60520    1.00000    0.50000   1.00
C1       0.50000    0.89480    0.50000   1.00
C1       0.50000    1.00000    0.39480   1.00
O1       1.00000    0.50000    0.50000   1.00
Zn1      0.96720    0.53280    0.53280   1.00
Zn1      1.03280    0.46720    0.53280   1.00
Zn1      1.03280    0.53280    0.46720   1.00
Zn1      0.96720    0.46720    0.46720   1.00
O2       0.97650    0.52350    0.58820   1.00
O2       0.97650    0.58820    0.52350   1.00
O2       0.91180    0.52350    0.52350   1.00
O2       1.02350    0.47650    0.58820   1.00
O2       1.08820    0.47650    0.52350   1.00
O2       1.02350    0.41180    0.52350   1.00
O2       1.02350    0.58820    0.47650   1.00
O2       1.08820    0.52350    0.47650   1.00
O2       1.02350    0.52350    0.41180   1.00
O2       0.91180    0.47650    0.47650   1.00
O2       0.97650    0.41180    0.47650   1.00
O2       0.97650    0.47650    0.41180   1.00
C1       1.00000    0.50000    0.60520   1.00
C1       1.00000    0.60520    0.50000   1.00
C1       0.89480    0.50000    0.50000   1.00
C1       1.10520    0.50000    0.50000   1.00
C1       1.00000    0.39480    0.50000   1.00
C1       1.00000    0.50000    0.39480   1.00
O1       0.50000    0.50000    0.50000   1.00
Zn1      0.53280    0.46720    0.46720   1.00
Zn1      0.46720    0.53280    0.46720   1.00
Zn1      0.46720    0.46720    0.53280   1.00
Zn1      0.53280    0.53280    0.53280   1.00
O2       0.52350    0.47650    0.41180   1.00
O2       0.52350    0.41180    0.47650   1.00
O2       0.58820    0.47650    0.47650   1.00
O2       0.47650    0.52350    0.41180   1.00
O2       0.41180    0.52350    0.47650   1.00
O2       0.47650    0.58820    0.47650   1.00
O2       0.47650    0.41180    0.52350   1.00
O2       0.41180    0.47650    0.52350   1.00
O2       0.47650    0.47650    0.58820   1.00
O2       0.58820    0.52350    0.52350   1.00
O2       0.52350    0.58820    0.52350   1.00
O2       0.52350    0.52350    0.58820   1.00
C1       0.50000    0.50000    0.39480   1.00
C1       0.50000    0.39480    0.50000   1.00
C1       0.60520    0.50000    0.50000   1.00
C1       0.39480    0.50000    0.50000   1.00
C1       0.50000    0.60520    0.50000   1.00
C1       0.50000    0.50000    0.60520   1.00
O1       1.00000    1.00000    0.50000   1.00
Zn1      1.03280    0.96720    0.46720   1.00
Zn1      0.96720    1.03280    0.46720   1.00
Zn1      0.96720    0.96720    0.53280   1.00
Zn1      1.03280    1.03280    0.53280   1.00
O2       1.02350    0.97650    0.41180   1.00
O2       1.02350    0.91180    0.47650   1.00
O2       1.08820    0.97650    0.47650   1.00
O2       0.97650    1.02350    0.41180   1.00
O2       0.91180    1.02350    0.47650   1.00
O2       0.97650    1.08820    0.47650   1.00
O2       0.97650    0.91180    0.52350   1.00
O2       0.91180    0.97650    0.52350   1.00
O2       0.97650    0.97650    0.58820   1.00
O2       1.08820    1.02350    0.52350   1.00
O2       1.02350    1.08820    0.52350   1.00
O2       1.02350    1.02350    0.58820   1.00
C1       1.00000    1.00000    0.39480   1.00
C1       1.00000    0.89480    0.50000   1.00
C1       1.10520    1.00000    0.50000   1.00
C1       0.89480    1.00000    0.50000   1.00
C1       1.00000    1.10520    0.50000   1.00
C1       1.00000    1.00000    0.60520   1.00
O1       1.00000    0.50000    1.00000   1.00
Zn1      1.03280    0.46720    0.96720   1.00
Zn1      0.96720    0.53280    0.96720   1.00
Zn1      0.96720    0.46720    1.03280   1.00
Zn1      1.03280    0.53280    1.03280   1.00
O2       1.02350    0.47650    0.91180   1.00
O2       1.02350    0.41180    0.97650   1.00
O2       1.08820    0.47650    0.97650   1.00
O2       0.97650    0.52350    0.91180   1.00
O2       0.91180    0.52350    0.97650   1.00
O2       0.97650    0.58820    0.97650   1.00
O2       0.97650    0.41180    1.02350   1.00
O2       0.91180    0.47650    1.02350   1.00
O2       0.97650    0.47650    1.08820   1.00
O2       1.08820    0.52350    1.02350   1.00
O2       1.02350    0.58820    1.02350   1.00
O2       1.02350    0.52350    1.08820   1.00
C1       1.00000    0.50000    0.89480   1.00
C1       1.00000    0.39480    1.00000   1.00
C1       1.10520    0.50000    1.00000   1.00
C1       0.89480    0.50000    1.00000   1.00
C1       1.00000    0.60520    1.00000   1.00
C1       1.00000    0.50000    1.10520   1.00
O1       0.50000    1.00000    1.00000   1.00
Zn1      0.53280    0.96720    0.96720   1.00
Zn1      0.46720    1.03280    0.96720   1.00
Zn1      0.46720    0.96720    1.03280   1.00
Zn1      0.53280    1.03280    1.03280   1.00
O2       0.52350    0.97650    0.91180   1.00
O2       0.52350    0.91180    0.97650   1.00
O2       0.58820    0.97650    0.97650   1.00
O2       0.47650    1.02350    0.91180   1.00
O2       0.41180    1.02350    0.97650   1.00
O2       0.47650    1.08820    0.97650   1.00
O2       0.47650    0.91180    1.02350   1.00
O2       0.41180    0.97650    1.02350   1.00
O2       0.47650    0.97650    1.08820   1.00
O2       0.58820    1.02350    1.02350   1.00
O2       0.52350    1.08820    1.02350   1.00
O2       0.52350    1.02350    1.08820   1.00
C1       0.50000    1.00000    0.89480   1.00
C1       0.50000    0.89480    1.00000   1.00
C1       0.60520    1.00000    1.00000   1.00
C1       0.39480    1.00000    1.00000   1.00
C1       0.50000    1.10520    1.00000   1.00
C1       0.50000    1.00000    1.10520   1.00
C5       0.86715    0.79848    1.13218   1.00
H2       0.84776    0.81946    1.14745   1.00
H2       0.88418    0.81603    1.11090   1.00
C5       0.89459    0.77900    1.16194   1.00
C5       0.92955    0.80564    1.17123   1.00
H2       0.90559    0.75081    1.15015   1.00
O3       0.78786    0.69015    0.98000   1.00
C4       0.74962    0.75018    1.02100   1.00
C3c      0.77877    0.76943    1.04243   1.00
H1       0.80178    0.78476    1.02725   1.00
C3d      0.71959    0.73086    1.04135   1.00
C3       0.77908    0.76879    1.08354   1.00
O2       0.80568    0.79216    1.10248   1.00
C3       0.72022    0.72953    1.08227   1.00
H1       0.69735    0.71319    1.09657   1.00
C2       0.74972    0.74848    1.10439   1.00
C5       0.76594    0.65528    0.97879   1.00
H2       0.76137    0.64468    0.94838   1.00
H2       0.73675    0.65930    0.99266   1.00
C5       0.78861    0.62432    1.00129   1.00
H2       0.79413    0.63538    1.03137   1.00
H2       0.81754    0.62029    0.98698   1.00
C5       0.76600    0.58553    1.00262   1.00
H2       0.76014    0.57445    0.97268   1.00
H2       0.73770    0.58922    1.01811   1.00
C5       0.79002    0.55447    1.02445   1.00
C5       0.66037    0.73326    1.01105   1.00
C5       0.83991    0.77063    1.11070   1.00
H2       0.66992    0.75683    0.99088   1.00
H2       0.64640    0.74687    1.03712   1.00
H2       0.85368    0.76047    1.08300   1.00
H2       0.83398    0.74421    1.12895   1.00
H2       0.87938    0.77361    1.19030   1.00
H2       0.61344    0.74761    0.94247   1.00
H2       0.58647    0.75449    0.98763   1.00
C2       0.74953    0.74736    0.89605   1.00
C3       0.73196    0.77885    0.91597   1.00
O2       0.70657    0.80347    0.89674   1.00
C3       0.76858    0.71823    0.91826   1.00
H1       0.78318    0.69428    0.90385   1.00
C3a      0.73289    0.78002    0.95713   1.00
H1       0.71739    0.80312    0.97202   1.00
C3b      0.76838    0.71882    0.95922   1.00
C4       0.75038    0.74982    0.97900   1.00
O3       0.69190    0.70901    1.02167   1.00
C5       0.72546    0.83879    0.88720   1.00
H2       0.73630    0.85399    0.91391   1.00
C5       0.69546    0.86449    0.86674   1.00
H2       0.75061    0.83353    0.86726   1.00
H2       0.67646    0.87809    0.88932   1.00
H2       0.67637    0.84500    0.84907   1.00
C5       0.71420    0.89604    0.84082   1.00
H2       0.73547    0.91324    0.85824   1.00
C5       0.68296    0.92391    0.82453   1.00
H2       0.72931    0.88286    0.81507   1.00
C5       0.63039    0.70788    0.99017   1.00
H2       0.61599    0.68875    1.01215   1.00
H2       0.64619    0.68836    0.96952   1.00
C5       0.60002    0.73246    0.96800   1.00
C5       0.56738    0.70592    0.95225   1.00
H2       0.92018    0.82910    1.19286   1.00
H2       0.95409    0.78751    1.18447   1.00
H2       0.94027    0.82003    1.14323   1.00
H2       0.77076    0.52817    1.03105   1.00
H2       0.81565    0.54495    1.00551   1.00
H2       0.80144    0.56728    1.05293   1.00
H2       0.69156    0.93350    0.79387   1.00
H2       0.65363    0.90827    0.82344   1.00
H2       0.68055    0.95060    0.84423   1.00
H2       0.57605    0.67407    0.95634   1.00
H2       0.53920    0.71196    0.96884   1.00
H2       0.56273    0.71207    0.91990   1.00
C5       0.79848    1.13218    0.86715   1.00
H2       0.81946    1.14745    0.84776   1.00
H2       0.81603    1.11090    0.88418   1.00
C5       0.77900    1.16194    0.89459   1.00
C5       0.80564    1.17123    0.92955   1.00
H2       0.75081    1.15015    0.90559   1.00
O3       0.69015    0.98000    0.78786   1.00
C4       0.75018    1.02100    0.74962   1.00
C3c      0.76943    1.04243    0.77877   1.00
H1       0.78476    1.02725    0.80178   1.00
C3d      0.73086    1.04135    0.71959   1.00
C3       0.76879    1.08354    0.77908   1.00
O2       0.79216    1.10248    0.80568   1.00
C3       0.72953    1.08227    0.72022   1.00
H1       0.71319    1.09657    0.69735   1.00
C2       0.74848    1.10439    0.74972   1.00
C5       0.65528    0.97879    0.76594   1.00
H2       0.64468    0.94838    0.76137   1.00
H2       0.65930    0.99266    0.73675   1.00
C5       0.62432    1.00129    0.78861   1.00
H2       0.63538    1.03137    0.79413   1.00
H2       0.62029    0.98698    0.81754   1.00
C5       0.58553    1.00262    0.76600   1.00
H2       0.57445    0.97268    0.76014   1.00
H2       0.58922    1.01811    0.73770   1.00
C5       0.55447    1.02445    0.79002   1.00
C5       0.73326    1.01105    0.66037   1.00
C5       0.77063    1.11070    0.83991   1.00
H2       0.75683    0.99088    0.66992   1.00
H2       0.74687    1.03712    0.64640   1.00
H2       0.76047    1.08300    0.85368   1.00
H2       0.74421    1.12895    0.83398   1.00
H2       0.77361    1.19030    0.87938   1.00
H2       0.74761    0.94247    0.61344   1.00
H2       0.75449    0.98763    0.58647   1.00
C2       0.74736    0.89605    0.74953   1.00
C3       0.77885    0.91597    0.73196   1.00
O2       0.80347    0.89674    0.70657   1.00
C3       0.71823    0.91826    0.76858   1.00
H1       0.69428    0.90385    0.78318   1.00
C3a      0.78002    0.95713    0.73289   1.00
H1       0.80312    0.97202    0.71739   1.00
C3b      0.71882    0.95922    0.76838   1.00
C4       0.74982    0.97900    0.75038   1.00
O3       0.70901    1.02167    0.69190   1.00
C5       0.83879    0.88720    0.72546   1.00
H2       0.85399    0.91391    0.73630   1.00
C5       0.86449    0.86674    0.69546   1.00
H2       0.83353    0.86726    0.75061   1.00
H2       0.87809    0.88932    0.67646   1.00
H2       0.84500    0.84907    0.67637   1.00
C5       0.89604    0.84082    0.71420   1.00
H2       0.91324    0.85824    0.73547   1.00
C5       0.92391    0.82453    0.68296   1.00
H2       0.88286    0.81507    0.72931   1.00
C5       0.70788    0.99017    0.63039   1.00
H2       0.68875    1.01215    0.61599   1.00
H2       0.68836    0.96952    0.64619   1.00
C5       0.73246    0.96800    0.60002   1.00
C5       0.70592    0.95225    0.56738   1.00
H2       0.82910    1.19286    0.92018   1.00
H2       0.78751    1.18447    0.95409   1.00
H2       0.82003    1.14323    0.94027   1.00
H2       0.52817    1.03105    0.77076   1.00
H2       0.54495    1.00551    0.81565   1.00
H2       0.56728    1.05293    0.80144   1.00
H2       0.93350    0.79387    0.69156   1.00
H2       0.90827    0.82344    0.65363   1.00
H2       0.95060    0.84423    0.68055   1.00
H2       0.67407    0.95634    0.57605   1.00
H2       0.71196    0.96884    0.53920   1.00
H2       0.71207    0.91990    0.56273   1.00
C5       0.36782    0.86715    0.70152   1.00
H2       0.35255    0.84776    0.68054   1.00
H2       0.38910    0.88418    0.68397   1.00
C5       0.33806    0.89459    0.72100   1.00
C5       0.32877    0.92955    0.69436   1.00
H2       0.34985    0.90559    0.74919   1.00
O3       0.52000    0.78786    0.80985   1.00
C4       0.47900    0.74962    0.74982   1.00
C3c      0.45757    0.77877    0.73057   1.00
H1       0.47275    0.80178    0.71524   1.00
C3d      0.45865    0.71959    0.76914   1.00
C3       0.41646    0.77908    0.73121   1.00
O2       0.39752    0.80568    0.70784   1.00
C3       0.41773    0.72022    0.77047   1.00
H1       0.40343    0.69735    0.78681   1.00
C2       0.39561    0.74972    0.75152   1.00
C5       0.52121    0.76594    0.84472   1.00
H2       0.55162    0.76137    0.85532   1.00
H2       0.50734    0.73675    0.84070   1.00
C5       0.49871    0.78861    0.87568   1.00
H2       0.46863    0.79413    0.86462   1.00
H2       0.51302    0.81754    0.87971   1.00
C5       0.49738    0.76600    0.91447   1.00
H2       0.52732    0.76014    0.92555   1.00
H2       0.48189    0.73770    0.91078   1.00
C5       0.47555    0.79002    0.94553   1.00
C5       0.48895    0.66037    0.76674   1.00
C5       0.38930    0.83991    0.72937   1.00
H2       0.50912    0.66992    0.74317   1.00
H2       0.46288    0.64640    0.75313   1.00
H2       0.41700    0.85368    0.73953   1.00
H2       0.37105    0.83398    0.75579   1.00
H2       0.30970    0.87938    0.72639   1.00
H2       0.55753    0.61344    0.75239   1.00
H2       0.51237    0.58647    0.74551   1.00
C2       0.60395    0.74953    0.75264   1.00
C3       0.58403    0.73196    0.72115   1.00
O2       0.60326    0.70657    0.69653   1.00
C3       0.58174    0.76858    0.78177   1.00
H1       0.59615    0.78318    0.80572   1.00
C3a      0.54287    0.73289    0.71998   1.00
H1       0.52798    0.71739    0.69688   1.00
C3b      0.54078    0.76838    0.78118   1.00
C4       0.52100    0.75038    0.75018   1.00
O3       0.47833    0.69190    0.79099   1.00
C5       0.61280    0.72546    0.66121   1.00
H2       0.58609    0.73630    0.64601   1.00
C5       0.63326    0.69546    0.63551   1.00
H2       0.63274    0.75061    0.66647   1.00
H2       0.61068    0.67646    0.62191   1.00
H2       0.65093    0.67637    0.65500   1.00
C5       0.65918    0.71420    0.60396   1.00
H2       0.64176    0.73547    0.58676   1.00
C5       0.67547    0.68296    0.57609   1.00
H2       0.68493    0.72931    0.61714   1.00
C5       0.50983    0.63039    0.79212   1.00
H2       0.48785    0.61599    0.81125   1.00
H2       0.53048    0.64619    0.81164   1.00
C5       0.53200    0.60002    0.76754   1.00
C5       0.54775    0.56738    0.79408   1.00
H2       0.30714    0.92018    0.67090   1.00
H2       0.31553    0.95409    0.71249   1.00
H2       0.35677    0.94027    0.67997   1.00
H2       0.46895    0.77076    0.97183   1.00
H2       0.49449    0.81565    0.95505   1.00
H2       0.44707    0.80144    0.93272   1.00
H2       0.70613    0.69156    0.56650   1.00
H2       0.67656    0.65363    0.59173   1.00
H2       0.65577    0.68055    0.54940   1.00
H2       0.54366    0.57605    0.82593   1.00
H2       0.53116    0.53920    0.78804   1.00
H2       0.58010    0.56273    0.78793   1.00
C5       1.13218    0.86715    0.79848   1.00
H2       1.14745    0.84776    0.81946   1.00
H2       1.11090    0.88418    0.81603   1.00
C5       1.16194    0.89459    0.77900   1.00
C5       1.17123    0.92955    0.80564   1.00
H2       1.15015    0.90559    0.75081   1.00
O3       0.98000    0.78786    0.69015   1.00
C4       1.02100    0.74962    0.75018   1.00
C3c      1.04243    0.77877    0.76943   1.00
H1       1.02725    0.80178    0.78476   1.00
C3d      1.04135    0.71959    0.73086   1.00
C3       1.08354    0.77908    0.76879   1.00
O2       1.10248    0.80568    0.79216   1.00
C3       1.08227    0.72022    0.72953   1.00
H1       1.09657    0.69735    0.71319   1.00
C2       1.10439    0.74972    0.74848   1.00
C5       0.97879    0.76594    0.65528   1.00
H2       0.94838    0.76137    0.64468   1.00
H2       0.99266    0.73675    0.65930   1.00
C5       1.00129    0.78861    0.62432   1.00
H2       1.03137    0.79413    0.63538   1.00
H2       0.98698    0.81754    0.62029   1.00
C5       1.00262    0.76600    0.58553   1.00
H2       0.97268    0.76014    0.57445   1.00
H2       1.01811    0.73770    0.58922   1.00
C5       1.02445    0.79002    0.55447   1.00
C5       1.01105    0.66037    0.73326   1.00
C5       1.11070    0.83991    0.77063   1.00
H2       0.99088    0.66992    0.75683   1.00
H2       1.03712    0.64640    0.74687   1.00
H2       1.08300    0.85368    0.76047   1.00
H2       1.12895    0.83398    0.74421   1.00
H2       1.19030    0.87938    0.77361   1.00
H2       0.94247    0.61344    0.74761   1.00
H2       0.98763    0.58647    0.75449   1.00
C2       0.89605    0.74953    0.74736   1.00
C3       0.91597    0.73196    0.77885   1.00
O2       0.89674    0.70657    0.80347   1.00
C3       0.91826    0.76858    0.71823   1.00
H1       0.90385    0.78318    0.69428   1.00
C3a      0.95713    0.73289    0.78002   1.00
H1       0.97202    0.71739    0.80312   1.00
C3b      0.95922    0.76838    0.71882   1.00
C4       0.97900    0.75038    0.74982   1.00
O3       1.02167    0.69190    0.70901   1.00
C5       0.88720    0.72546    0.83879   1.00
H2       0.91391    0.73630    0.85399   1.00
C5       0.86674    0.69546    0.86449   1.00
H2       0.86726    0.75061    0.83353   1.00
H2       0.88932    0.67646    0.87809   1.00
H2       0.84907    0.67637    0.84500   1.00
C5       0.84082    0.71420    0.89604   1.00
H2       0.85824    0.73547    0.91324   1.00
C5       0.82453    0.68296    0.92391   1.00
H2       0.81507    0.72931    0.88286   1.00
C5       0.99017    0.63039    0.70788   1.00
H2       1.01215    0.61599    0.68875   1.00
H2       0.96952    0.64619    0.68836   1.00
C5       0.96800    0.60002    0.73246   1.00
C5       0.95225    0.56738    0.70592   1.00
H2       1.19286    0.92018    0.82910   1.00
H2       1.18447    0.95409    0.78751   1.00
H2       1.14323    0.94027    0.82003   1.00
H2       1.03105    0.77076    0.52817   1.00
H2       1.00551    0.81565    0.54495   1.00
H2       1.05293    0.80144    0.56728   1.00
H2       0.79387    0.69156    0.93350   1.00
H2       0.82344    0.65363    0.90827   1.00
H2       0.84423    0.68055    0.95060   1.00
H2       0.95634    0.57605    0.67407   1.00
H2       0.96884    0.53920    0.71196   1.00
H2       0.91990    0.56273    0.71207   1.00
C5       0.70152    0.36782    0.86715   1.00
H2       0.68054    0.35255    0.84776   1.00
H2       0.68397    0.38910    0.88418   1.00
C5       0.72100    0.33806    0.89459   1.00
C5       0.69436    0.32877    0.92955   1.00
H2       0.74919    0.34985    0.90559   1.00
O3       0.80985    0.52000    0.78786   1.00
C4       0.74982    0.47900    0.74962   1.00
C3c      0.73057    0.45757    0.77877   1.00
H1       0.71524    0.47275    0.80178   1.00
C3d      0.76914    0.45865    0.71959   1.00
C3       0.73121    0.41646    0.77908   1.00
O2       0.70784    0.39752    0.80568   1.00
C3       0.77047    0.41773    0.72022   1.00
H1       0.78681    0.40343    0.69735   1.00
C2       0.75152    0.39561    0.74972   1.00
C5       0.84472    0.52121    0.76594   1.00
H2       0.85532    0.55162    0.76137   1.00
H2       0.84070    0.50734    0.73675   1.00
C5       0.87568    0.49871    0.78861   1.00
H2       0.86462    0.46863    0.79413   1.00
H2       0.87971    0.51302    0.81754   1.00
C5       0.91447    0.49738    0.76600   1.00
H2       0.92555    0.52732    0.76014   1.00
H2       0.91078    0.48189    0.73770   1.00
C5       0.94553    0.47555    0.79002   1.00
C5       0.76674    0.48895    0.66037   1.00
C5       0.72937    0.38930    0.83991   1.00
H2       0.74317    0.50912    0.66992   1.00
H2       0.75313    0.46288    0.64640   1.00
H2       0.73953    0.41700    0.85368   1.00
H2       0.75579    0.37105    0.83398   1.00
H2       0.72639    0.30970    0.87938   1.00
H2       0.75239    0.55753    0.61344   1.00
H2       0.74551    0.51237    0.58647   1.00
C2       0.75264    0.60395    0.74953   1.00
C3       0.72115    0.58403    0.73196   1.00
O2       0.69653    0.60326    0.70657   1.00
C3       0.78177    0.58174    0.76858   1.00
H1       0.80572    0.59615    0.78318   1.00
C3a      0.71998    0.54287    0.73289   1.00
H1       0.69688    0.52798    0.71739   1.00
C3b      0.78118    0.54078    0.76838   1.00
C4       0.75018    0.52100    0.75038   1.00
O3       0.79099    0.47833    0.69190   1.00
C5       0.66121    0.61280    0.72546   1.00
H2       0.64601    0.58609    0.73630   1.00
C5       0.63551    0.63326    0.69546   1.00
H2       0.66647    0.63274    0.75061   1.00
H2       0.62191    0.61068    0.67646   1.00
H2       0.65500    0.65093    0.67637   1.00
C5       0.60396    0.65918    0.71420   1.00
H2       0.58676    0.64176    0.73547   1.00
C5       0.57609    0.67547    0.68296   1.00
H2       0.61714    0.68493    0.72931   1.00
C5       0.79212    0.50983    0.63039   1.00
H2       0.81125    0.48785    0.61599   1.00
H2       0.81164    0.53048    0.64619   1.00
C5       0.76754    0.53200    0.60002   1.00
C5       0.79408    0.54775    0.56738   1.00
H2       0.67090    0.30714    0.92018   1.00
H2       0.71249    0.31553    0.95409   1.00
H2       0.67997    0.35677    0.94027   1.00
H2       0.97183    0.46895    0.77076   1.00
H2       0.95505    0.49449    0.81565   1.00
H2       0.93272    0.44707    0.80144   1.00
H2       0.56650    0.70613    0.69156   1.00
H2       0.59173    0.67656    0.65363   1.00
H2       0.54940    0.65577    0.68055   1.00
H2       0.82593    0.54366    0.57605   1.00
H2       0.78804    0.53116    0.53920   1.00
H2       0.78793    0.58010    0.56273   1.00
C5       0.86715    0.70152    0.36782   1.00
H2       0.84776    0.68054    0.35255   1.00
H2       0.88418    0.68397    0.38910   1.00
C5       0.89459    0.72100    0.33806   1.00
C5       0.92955    0.69436    0.32877   1.00
H2       0.90559    0.74919    0.34985   1.00
O3       0.78786    0.80985    0.52000   1.00
C4       0.74962    0.74982    0.47900   1.00
C3c      0.77877    0.73057    0.45757   1.00
H1       0.80178    0.71524    0.47275   1.00
C3d      0.71959    0.76914    0.45865   1.00
C3       0.77908    0.73121    0.41646   1.00
O2       0.80568    0.70784    0.39752   1.00
C3       0.72022    0.77047    0.41773   1.00
H1       0.69735    0.78681    0.40343   1.00
C2       0.74972    0.75152    0.39561   1.00
C5       0.76594    0.84472    0.52121   1.00
H2       0.76137    0.85532    0.55162   1.00
H2       0.73675    0.84070    0.50734   1.00
C5       0.78861    0.87568    0.49871   1.00
H2       0.79413    0.86462    0.46863   1.00
H2       0.81754    0.87971    0.51302   1.00
C5       0.76600    0.91447    0.49738   1.00
H2       0.76014    0.92555    0.52732   1.00
H2       0.73770    0.91078    0.48189   1.00
C5       0.79002    0.94553    0.47555   1.00
C5       0.66037    0.76674    0.48895   1.00
C5       0.83991    0.72937    0.38930   1.00
H2       0.66992    0.74317    0.50912   1.00
H2       0.64640    0.75313    0.46288   1.00
H2       0.85368    0.73953    0.41700   1.00
H2       0.83398    0.75579    0.37105   1.00
H2       0.87938    0.72639    0.30970   1.00
H2       0.61344    0.75239    0.55753   1.00
H2       0.58647    0.74551    0.51237   1.00
C2       0.74953    0.75264    0.60395   1.00
C3       0.73196    0.72115    0.58403   1.00
O2       0.70657    0.69653    0.60326   1.00
C3       0.76858    0.78177    0.58174   1.00
H1       0.78318    0.80572    0.59615   1.00
C3a      0.73289    0.71998    0.54287   1.00
H1       0.71739    0.69688    0.52798   1.00
C3b      0.76838    0.78118    0.54078   1.00
C4       0.75038    0.75018    0.52100   1.00
O3       0.69190    0.79099    0.47833   1.00
C5       0.72546    0.66121    0.61280   1.00
H2       0.73630    0.64601    0.58609   1.00
C5       0.69546    0.63551    0.63326   1.00
H2       0.75061    0.66647    0.63274   1.00
H2       0.67646    0.62191    0.61068   1.00
H2       0.67637    0.65500    0.65093   1.00
C5       0.71420    0.60396    0.65918   1.00
H2       0.73547    0.58676    0.64176   1.00
C5       0.68296    0.57609    0.67547   1.00
H2       0.72931    0.61714    0.68493   1.00
C5       0.63039    0.79212    0.50983   1.00
H2       0.61599    0.81125    0.48785   1.00
H2       0.64619    0.81164    0.53048   1.00
C5       0.60002    0.76754    0.53200   1.00
C5       0.56738    0.79408    0.54775   1.00
H2       0.92018    0.67090    0.30714   1.00
H2       0.95409    0.71249    0.31553   1.00
H2       0.94027    0.67997    0.35677   1.00
H2       0.77076    0.97183    0.46895   1.00
H2       0.81565    0.95505    0.49449   1.00
H2       0.80144    0.93272    0.44707   1.00
H2       0.69156    0.56650    0.70613   1.00
H2       0.65363    0.59173    0.67656   1.00
H2       0.68055    0.54940    0.65577   1.00
H2       0.57605    0.82593    0.54366   1.00
H2       0.53920    0.78804    0.53116   1.00
H2       0.56273    0.78793    0.58010   1.00
C5       0.36715    0.29848    1.13218   1.00
H2       0.34776    0.31946    1.14745   1.00
H2       0.38418    0.31603    1.11090   1.00
C5       0.39459    0.27900    1.16194   1.00
C5       0.42955    0.30564    1.17123   1.00
H2       0.40559    0.25081    1.15015   1.00
O3       0.28786    0.19015    0.98000   1.00
C4       0.24962    0.25018    1.02100   1.00
C3c      0.27877    0.26943    1.04243   1.00
H1       0.30178    0.28476    1.02725   1.00
C3d      0.21959    0.23086    1.04135   1.00
C3       0.27908    0.26879    1.08354   1.00
O2       0.30568    0.29216    1.10248   1.00
C3       0.22022    0.22953    1.08227   1.00
H1       0.19735    0.21319    1.09657   1.00
C2       0.24972    0.24848    1.10439   1.00
C5       0.26594    0.15528    0.97879   1.00
H2       0.26137    0.14468    0.94838   1.00
H2       0.23675    0.15930    0.99266   1.00
C5       0.28861    0.12432    1.00129   1.00
H2       0.29413    0.13538    1.03137   1.00
H2       0.31754    0.12029    0.98698   1.00
C5       0.26600    0.08553    1.00262   1.00
H2       0.26014    0.07445    0.97268   1.00
H2       0.23770    0.08922    1.01811   1.00
C5       0.29002    0.05447    1.02445   1.00
C5       0.16037    0.23326    1.01105   1.00
C5       0.33991    0.27063    1.11070   1.00
H2       0.16992    0.25683    0.99088   1.00
H2       0.14640    0.24687    1.03712   1.00
H2       0.35368    0.26047    1.08300   1.00
H2       0.33398    0.24421    1.12895   1.00
H2       0.37938    0.27361    1.19030   1.00
H2       0.11344    0.24761    0.94247   1.00
H2       0.08647    0.25449    0.98763   1.00
C2       0.24953    0.24736    0.89605   1.00
C3       0.23196    0.27885    0.91597   1.00
O2       0.20657    0.30347    0.89674   1.00
C3       0.26858    0.21823    0.91826   1.00
H1       0.28318    0.19428    0.90385   1.00
C3a      0.23289    0.28002    0.95713   1.00
H1       0.21739    0.30312    0.97202   1.00
C3b      0.26838    0.21882    0.95922   1.00
C4       0.25038    0.24982    0.97900   1.00
O3       0.19190    0.20901    1.02167   1.00
C5       0.22546    0.33879    0.88720   1.00
H2       0.23630    0.35399    0.91391   1.00
C5       0.19546    0.36449    0.86674   1.00
H2       0.25061    0.33353    0.86726   1.00
H2       0.17646    0.37809    0.88932   1.00
H2       0.17637    0.34500    0.84907   1.00
C5       0.21420    0.39604    0.84082   1.00
H2       0.23547    0.41324    0.85824   1.00
C5       0.18296    0.42391    0.82453   1.00
H2       0.22931    0.38286    0.81507   1.00
C5       0.13039    0.20788    0.99017   1.00
H2       0.11599    0.18875    1.01215   1.00
H2       0.14619    0.18836    0.96952   1.00
C5       0.10002    0.23246    0.96800   1.00
C5       0.06738    0.20592    0.95225   1.00
H2       0.42018    0.32910    1.19286   1.00
H2       0.45409    0.28751    1.18447   1.00
H2       0.44027    0.32003    1.14323   1.00
H2       0.27076    0.02817    1.03105   1.00
H2       0.31565    0.04495    1.00551   1.00
H2       0.30144    0.06728    1.05293   1.00
H2       0.19156    0.43350    0.79387   1.00
H2       0.15363    0.40827    0.82344   1.00
H2       0.18055    0.45060    0.84423   1.00
H2       0.07605    0.17407    0.95634   1.00
H2       0.03920    0.21196    0.96884   1.00
H2       0.06273    0.21207    0.91990   1.00
C5       0.29848    0.63218    0.86715   1.00
H2       0.31946    0.64745    0.84776   1.00
H2       0.31603    0.61090    0.88418   1.00
C5       0.27900    0.66194    0.89459   1.00
C5       0.30564    0.67123    0.92955   1.00
H2       0.25081    0.65015    0.90559   1.00
O3       0.19015    0.48000    0.78786   1.00
C4       0.25018    0.52100    0.74962   1.00
C3c      0.26943    0.54243    0.77877   1.00
H1       0.28476    0.52725    0.80178   1.00
C3d      0.23086    0.54135    0.71959   1.00
C3       0.26879    0.58354    0.77908   1.00
O2       0.29216    0.60248    0.80568   1.00
C3       0.22953    0.58227    0.72022   1.00
H1       0.21319    0.59657    0.69735   1.00
C2       0.24848    0.60439    0.74972   1.00
C5       0.15528    0.47879    0.76594   1.00
H2       0.14468    0.44838    0.76137   1.00
H2       0.15930    0.49266    0.73675   1.00
C5       0.12432    0.50129    0.78861   1.00
H2       0.13538    0.53137    0.79413   1.00
H2       0.12029    0.48698    0.81754   1.00
C5       0.08553    0.50262    0.76600   1.00
H2       0.07445    0.47268    0.76014   1.00
H2       0.08922    0.51811    0.73770   1.00
C5       0.05447    0.52445    0.79002   1.00
C5       0.23326    0.51105    0.66037   1.00
C5       0.27063    0.61070    0.83991   1.00
H2       0.25683    0.49088    0.66992   1.00
H2       0.24687    0.53712    0.64640   1.00
H2       0.26047    0.58300    0.85368   1.00
H2       0.24421    0.62895    0.83398   1.00
H2       0.27361    0.69030    0.87938   1.00
H2       0.24761    0.44247    0.61344   1.00
H2       0.25449    0.48763    0.58647   1.00
C2       0.24736    0.39605    0.74953   1.00
C3       0.27885    0.41597    0.73196   1.00
O2       0.30347    0.39674    0.70657   1.00
C3       0.21823    0.41826    0.76858   1.00
H1       0.19428    0.40385    0.78318   1.00
C3a      0.28002    0.45713    0.73289   1.00
H1       0.30312    0.47202    0.71739   1.00
C3b      0.21882    0.45922    0.76838   1.00
C4       0.24982    0.47900    0.75038   1.00
O3       0.20901    0.52167    0.69190   1.00
C5       0.33879    0.38720    0.72546   1.00
H2       0.35399    0.41391    0.73630   1.00
C5       0.36449    0.36674    0.69546   1.00
H2       0.33353    0.36726    0.75061   1.00
H2       0.37809    0.38932    0.67646   1.00
H2       0.34500    0.34907    0.67637   1.00
C5       0.39604    0.34082    0.71420   1.00
H2       0.41324    0.35824    0.73547   1.00
C5       0.42391    0.32453    0.68296   1.00
H2       0.38286    0.31507    0.72931   1.00
C5       0.20788    0.49017    0.63039   1.00
H2       0.18875    0.51215    0.61599   1.00
H2       0.18836    0.46952    0.64619   1.00
C5       0.23246    0.46800    0.60002   1.00
C5       0.20592    0.45225    0.56738   1.00
H2       0.32910    0.69286    0.92018   1.00
H2       0.28751    0.68447    0.95409   1.00
H2       0.32003    0.64323    0.94027   1.00
H2       0.02817    0.53105    0.77076   1.00
H2       0.04495    0.50551    0.81565   1.00
H2       0.06728    0.55293    0.80144   1.00
H2       0.43350    0.29387    0.69156   1.00
H2       0.40827    0.32344    0.65363   1.00
H2       0.45060    0.34423    0.68055   1.00
H2       0.17407    0.45634    0.57605   1.00
H2       0.21196    0.46884    0.53920   1.00
H2       0.21207    0.41990    0.56273   1.00
C5       -0.13218   0.36715    0.70152   1.00
H2       -0.14745   0.34776    0.68054   1.00
H2       -0.11090   0.38418    0.68397   1.00
C5       -0.16194   0.39459    0.72100   1.00
C5       -0.17123   0.42955    0.69436   1.00
H2       -0.15015   0.40559    0.74919   1.00
O3       0.02000    0.28786    0.80985   1.00
C4       -0.02100   0.24962    0.74982   1.00
C3c      -0.04243   0.27877    0.73057   1.00
H1       -0.02725   0.30178    0.71524   1.00
C3d      -0.04135   0.21959    0.76914   1.00
C3       -0.08354   0.27908    0.73121   1.00
O2       -0.10248   0.30568    0.70784   1.00
C3       -0.08227   0.22022    0.77047   1.00
H1       -0.09657   0.19735    0.78681   1.00
C2       -0.10439   0.24972    0.75152   1.00
C5       0.02121    0.26594    0.84472   1.00
H2       0.05162    0.26137    0.85532   1.00
H2       0.00734    0.23675    0.84070   1.00
C5       -0.00129   0.28861    0.87568   1.00
H2       -0.03137   0.29413    0.86462   1.00
H2       0.01302    0.31754    0.87971   1.00
C5       -0.00262   0.26600    0.91447   1.00
H2       0.02732    0.26014    0.92555   1.00
H2       -0.01811   0.23770    0.91078   1.00
C5       -0.02445   0.29002    0.94553   1.00
C5       -0.01105   0.16037    0.76674   1.00
C5       -0.11070   0.33991    0.72937   1.00
H2       0.00912    0.16992    0.74317   1.00
H2       -0.03712   0.14640    0.75313   1.00
H2       -0.08300   0.35368    0.73953   1.00
H2       -0.12895   0.33398    0.75579   1.00
H2       -0.19030   0.37938    0.72639   1.00
H2       0.05753    0.11344    0.75239   1.00
H2       0.01237    0.08647    0.74551   1.00
C2       0.10395    0.24953    0.75264   1.00
C3       0.08403    0.23196    0.72115   1.00
O2       0.10326    0.20657    0.69653   1.00
C3       0.08174    0.26858    0.78177   1.00
H1       0.09615    0.28318    0.80572   1.00
C3a      0.04287    0.23289    0.71998   1.00
H1       0.02798    0.21739    0.69688   1.00
C3b      0.04078    0.26838    0.78118   1.00
C4       0.02100    0.25038    0.75018   1.00
O3       -0.02167   0.19190    0.79099   1.00
C5       0.11280    0.22546    0.66121   1.00
H2       0.08609    0.23630    0.64601   1.00
C5       0.13326    0.19546    0.63551   1.00
H2       0.13274    0.25061    0.66647   1.00
H2       0.11068    0.17646    0.62191   1.00
H2       0.15093    0.17637    0.65500   1.00
C5       0.15918    0.21420    0.60396   1.00
H2       0.14176    0.23547    0.58676   1.00
C5       0.17547    0.18296    0.57609   1.00
H2       0.18493    0.22931    0.61714   1.00
C5       0.00983    0.13039    0.79212   1.00
H2       -0.01215   0.11599    0.81125   1.00
H2       0.03048    0.14619    0.81164   1.00
C5       0.03200    0.10002    0.76754   1.00
C5       0.04775    0.06738    0.79408   1.00
H2       -0.19286   0.42018    0.67090   1.00
H2       -0.18447   0.45409    0.71249   1.00
H2       -0.14323   0.44027    0.67997   1.00
H2       -0.03105   0.27076    0.97183   1.00
H2       -0.00551   0.31565    0.95505   1.00
H2       -0.05293   0.30144    0.93272   1.00
H2       0.20613    0.19156    0.56650   1.00
H2       0.17656    0.15363    0.59173   1.00
H2       0.15577    0.18055    0.54940   1.00
H2       0.04366    0.07605    0.82593   1.00
H2       0.03116    0.03920    0.78804   1.00
H2       0.08010    0.06273    0.78793   1.00
C5       0.63218    0.36715    0.79848   1.00
H2       0.64745    0.34776    0.81946   1.00
H2       0.61090    0.38418    0.81603   1.00
C5       0.66194    0.39459    0.77900   1.00
C5       0.67123    0.42955    0.80564   1.00
H2       0.65015    0.40559    0.75081   1.00
O3       0.48000    0.28786    0.69015   1.00
C4       0.52100    0.24962    0.75018   1.00
C3c      0.54243    0.27877    0.76943   1.00
H1       0.52725    0.30178    0.78476   1.00
C3d      0.54135    0.21959    0.73086   1.00
C3       0.58354    0.27908    0.76879   1.00
O2       0.60248    0.30568    0.79216   1.00
C3       0.58227    0.22022    0.72953   1.00
H1       0.59657    0.19735    0.71319   1.00
C2       0.60439    0.24972    0.74848   1.00
C5       0.47879    0.26594    0.65528   1.00
H2       0.44838    0.26137    0.64468   1.00
H2       0.49266    0.23675    0.65930   1.00
C5       0.50129    0.28861    0.62432   1.00
H2       0.53137    0.29413    0.63538   1.00
H2       0.48698    0.31754    0.62029   1.00
C5       0.50262    0.26600    0.58553   1.00
H2       0.47268    0.26014    0.57445   1.00
H2       0.51811    0.23770    0.58922   1.00
C5       0.52445    0.29002    0.55447   1.00
C5       0.51105    0.16037    0.73326   1.00
C5       0.61070    0.33991    0.77063   1.00
H2       0.49088    0.16992    0.75683   1.00
H2       0.53712    0.14640    0.74687   1.00
H2       0.58300    0.35368    0.76047   1.00
H2       0.62895    0.33398    0.74421   1.00
H2       0.69030    0.37938    0.77361   1.00
H2       0.44247    0.11344    0.74761   1.00
H2       0.48763    0.08647    0.75449   1.00
C2       0.39605    0.24953    0.74736   1.00
C3       0.41597    0.23196    0.77885   1.00
O2       0.39674    0.20657    0.80347   1.00
C3       0.41826    0.26858    0.71823   1.00
H1       0.40385    0.28318    0.69428   1.00
C3a      0.45713    0.23289    0.78002   1.00
H1       0.47202    0.21739    0.80312   1.00
C3b      0.45922    0.26838    0.71882   1.00
C4       0.47900    0.25038    0.74982   1.00
O3       0.52167    0.19190    0.70901   1.00
C5       0.38720    0.22546    0.83879   1.00
H2       0.41391    0.23630    0.85399   1.00
C5       0.36674    0.19546    0.86449   1.00
H2       0.36726    0.25061    0.83353   1.00
H2       0.38932    0.17646    0.87809   1.00
H2       0.34907    0.17637    0.84500   1.00
C5       0.34082    0.21420    0.89604   1.00
H2       0.35824    0.23547    0.91324   1.00
C5       0.32453    0.18296    0.92391   1.00
H2       0.31507    0.22931    0.88286   1.00
C5       0.49017    0.13039    0.70788   1.00
H2       0.51215    0.11599    0.68875   1.00
H2       0.46952    0.14619    0.68836   1.00
C5       0.46800    0.10002    0.73246   1.00
C5       0.45225    0.06738    0.70592   1.00
H2       0.69286    0.42018    0.82910   1.00
H2       0.68447    0.45409    0.78751   1.00
H2       0.64323    0.44027    0.82003   1.00
H2       0.53105    0.27076    0.52817   1.00
H2       0.50551    0.31565    0.54495   1.00
H2       0.55293    0.30144    0.56728   1.00
H2       0.29387    0.19156    0.93350   1.00
H2       0.32344    0.15363    0.90827   1.00
H2       0.34423    0.18055    0.95060   1.00
H2       0.45634    0.07605    0.67407   1.00
H2       0.46884    0.03920    0.71196   1.00
H2       0.41990    0.06273    0.71207   1.00
C5       0.20152    -0.13218   0.86715   1.00
H2       0.18054    -0.14745   0.84776   1.00
H2       0.18397    -0.11090   0.88418   1.00
C5       0.22100    -0.16194   0.89459   1.00
C5       0.19436    -0.17123   0.92955   1.00
H2       0.24919    -0.15015   0.90559   1.00
O3       0.30985    0.02000    0.78786   1.00
C4       0.24982    -0.02100   0.74962   1.00
C3c      0.23057    -0.04243   0.77877   1.00
H1       0.21524    -0.02725   0.80178   1.00
C3d      0.26914    -0.04135   0.71959   1.00
C3       0.23121    -0.08354   0.77908   1.00
O2       0.20784    -0.10248   0.80568   1.00
C3       0.27047    -0.08227   0.72022   1.00
H1       0.28681    -0.09657   0.69735   1.00
C2       0.25152    -0.10439   0.74972   1.00
C5       0.34472    0.02121    0.76594   1.00
H2       0.35532    0.05162    0.76137   1.00
H2       0.34070    0.00734    0.73675   1.00
C5       0.37568    -0.00129   0.78861   1.00
H2       0.36462    -0.03137   0.79413   1.00
H2       0.37971    0.01302    0.81754   1.00
C5       0.41447    -0.00262   0.76600   1.00
H2       0.42555    0.02732    0.76014   1.00
H2       0.41078    -0.01811   0.73770   1.00
C5       0.44553    -0.02445   0.79002   1.00
C5       0.26674    -0.01105   0.66037   1.00
C5       0.22937    -0.11070   0.83991   1.00
H2       0.24317    0.00912    0.66992   1.00
H2       0.25313    -0.03712   0.64640   1.00
H2       0.23953    -0.08300   0.85368   1.00
H2       0.25579    -0.12895   0.83398   1.00
H2       0.22639    -0.19030   0.87938   1.00
H2       0.25239    0.05753    0.61344   1.00
H2       0.24551    0.01237    0.58647   1.00
C2       0.25264    0.10395    0.74953   1.00
C3       0.22115    0.08403    0.73196   1.00
O2       0.19653    0.10326    0.70657   1.00
C3       0.28177    0.08174    0.76858   1.00
H1       0.30572    0.09615    0.78318   1.00
C3a      0.21998    0.04287    0.73289   1.00
H1       0.19688    0.02798    0.71739   1.00
C3b      0.28118    0.04078    0.76838   1.00
C4       0.25018    0.02100    0.75038   1.00
O3       0.29099    -0.02167   0.69190   1.00
C5       0.16121    0.11280    0.72546   1.00
H2       0.14601    0.08609    0.73630   1.00
C5       0.13551    0.13326    0.69546   1.00
H2       0.16647    0.13274    0.75061   1.00
H2       0.12191    0.11068    0.67646   1.00
H2       0.15500    0.15093    0.67637   1.00
C5       0.10396    0.15918    0.71420   1.00
H2       0.08676    0.14176    0.73547   1.00
C5       0.07609    0.17547    0.68296   1.00
H2       0.11714    0.18493    0.72931   1.00
C5       0.29212    0.00983    0.63039   1.00
H2       0.31125    -0.01215   0.61599   1.00
H2       0.31164    0.03048    0.64619   1.00
C5       0.26754    0.03200    0.60002   1.00
C5       0.29408    0.04775    0.56738   1.00
H2       0.17090    -0.19286   0.92018   1.00
H2       0.21249    -0.18447   0.95409   1.00
H2       0.17997    -0.14323   0.94027   1.00
H2       0.47183    -0.03105   0.77076   1.00
H2       0.45505    -0.00551   0.81565   1.00
H2       0.43272    -0.05293   0.80144   1.00
H2       0.06650    0.20613    0.69156   1.00
H2       0.09173    0.17656    0.65363   1.00
H2       0.04940    0.15577    0.68055   1.00
H2       0.32593    0.04366    0.57605   1.00
H2       0.28804    0.03116    0.53920   1.00
H2       0.28793    0.08010    0.56273   1.00
C5       0.36715    0.20152    0.36782   1.00
H2       0.34776    0.18054    0.35255   1.00
H2       0.38418    0.18397    0.38910   1.00
C5       0.39459    0.22100    0.33806   1.00
C5       0.42955    0.19436    0.32877   1.00
H2       0.40559    0.24919    0.34985   1.00
O3       0.28786    0.30985    0.52000   1.00
C4       0.24962    0.24982    0.47900   1.00
C3c      0.27877    0.23057    0.45757   1.00
H1       0.30178    0.21524    0.47275   1.00
C3d      0.21959    0.26914    0.45865   1.00
C3       0.27908    0.23121    0.41646   1.00
O2       0.30568    0.20784    0.39752   1.00
C3       0.22022    0.27047    0.41773   1.00
H1       0.19735    0.28681    0.40343   1.00
C2       0.24972    0.25152    0.39561   1.00
C5       0.26594    0.34472    0.52121   1.00
H2       0.26137    0.35532    0.55162   1.00
H2       0.23675    0.34070    0.50734   1.00
C5       0.28861    0.37568    0.49871   1.00
H2       0.29413    0.36462    0.46863   1.00
H2       0.31754    0.37971    0.51302   1.00
C5       0.26600    0.41447    0.49738   1.00
H2       0.26014    0.42555    0.52732   1.00
H2       0.23770    0.41078    0.48189   1.00
C5       0.29002    0.44553    0.47555   1.00
C5       0.16037    0.26674    0.48895   1.00
C5       0.33991    0.22937    0.38930   1.00
H2       0.16992    0.24317    0.50912   1.00
H2       0.14640    0.25313    0.46288   1.00
H2       0.35368    0.23953    0.41700   1.00
H2       0.33398    0.25579    0.37105   1.00
H2       0.37938    0.22639    0.30970   1.00
H2       0.11344    0.25239    0.55753   1.00
H2       0.08647    0.24551    0.51237   1.00
C2       0.24953    0.25264    0.60395   1.00
C3       0.23196    0.22115    0.58403   1.00
O2       0.20657    0.19653    0.60326   1.00
C3       0.26858    0.28177    0.58174   1.00
H1       0.28318    0.30572    0.59615   1.00
C3a      0.23289    0.21998    0.54287   1.00
H1       0.21739    0.19688    0.52798   1.00
C3b      0.26838    0.28118    0.54078   1.00
C4       0.25038    0.25018    0.52100   1.00
O3       0.19190    0.29099    0.47833   1.00
C5       0.22546    0.16121    0.61280   1.00
H2       0.23630    0.14601    0.58609   1.00
C5       0.19546    0.13551    0.63326   1.00
H2       0.25061    0.16647    0.63274   1.00
H2       0.17646    0.12191    0.61068   1.00
H2       0.17637    0.15500    0.65093   1.00
C5       0.21420    0.10396    0.65918   1.00
H2       0.23547    0.08676    0.64176   1.00
C5       0.18296    0.07609    0.67547   1.00
H2       0.22931    0.11714    0.68493   1.00
C5       0.13039    0.29212    0.50983   1.00
H2       0.11599    0.31125    0.48785   1.00
H2       0.14619    0.31164    0.53048   1.00
C5       0.10002    0.26754    0.53200   1.00
C5       0.06738    0.29408    0.54775   1.00
H2       0.42018    0.17090    0.30714   1.00
H2       0.45409    0.21249    0.31553   1.00
H2       0.44027    0.17997    0.35677   1.00
H2       0.27076    0.47183    0.46895   1.00
H2       0.31565    0.45505    0.49449   1.00
H2       0.30144    0.43272    0.44707   1.00
H2       0.19156    0.06650    0.70613   1.00
H2       0.15363    0.09173    0.67656   1.00
H2       0.18055    0.04940    0.65577   1.00
H2       0.07605    0.32593    0.54366   1.00
H2       0.03920    0.28804    0.53116   1.00
H2       0.06273    0.28793    0.58010   1.00
C5       0.36715    0.79848    0.63218   1.00
H2       0.34776    0.81946    0.64745   1.00
H2       0.38418    0.81603    0.61090   1.00
C5       0.39459    0.77900    0.66194   1.00
C5       0.42955    0.80564    0.67123   1.00
H2       0.40559    0.75081    0.65015   1.00
O3       0.28786    0.69015    0.48000   1.00
C4       0.24962    0.75018    0.52100   1.00
C3c      0.27877    0.76943    0.54243   1.00
H1       0.30178    0.78476    0.52725   1.00
C3d      0.21959    0.73086    0.54135   1.00
C3       0.27908    0.76879    0.58354   1.00
O2       0.30568    0.79216    0.60248   1.00
C3       0.22022    0.72953    0.58227   1.00
H1       0.19735    0.71319    0.59657   1.00
C2       0.24972    0.74848    0.60439   1.00
C5       0.26594    0.65528    0.47879   1.00
H2       0.26137    0.64468    0.44838   1.00
H2       0.23675    0.65930    0.49266   1.00
C5       0.28861    0.62432    0.50129   1.00
H2       0.29413    0.63538    0.53137   1.00
H2       0.31754    0.62029    0.48698   1.00
C5       0.26600    0.58553    0.50262   1.00
H2       0.26014    0.57445    0.47268   1.00
H2       0.23770    0.58922    0.51811   1.00
C5       0.29002    0.55447    0.52445   1.00
C5       0.16037    0.73326    0.51105   1.00
C5       0.33991    0.77063    0.61070   1.00
H2       0.16992    0.75683    0.49088   1.00
H2       0.14640    0.74687    0.53712   1.00
H2       0.35368    0.76047    0.58300   1.00
H2       0.33398    0.74421    0.62895   1.00
H2       0.37938    0.77361    0.69030   1.00
H2       0.11344    0.74761    0.44247   1.00
H2       0.08647    0.75449    0.48763   1.00
C2       0.24953    0.74736    0.39605   1.00
C3       0.23196    0.77885    0.41597   1.00
O2       0.20657    0.80347    0.39674   1.00
C3       0.26858    0.71823    0.41826   1.00
H1       0.28318    0.69428    0.40385   1.00
C3a      0.23289    0.78002    0.45713   1.00
H1       0.21739    0.80312    0.47202   1.00
C3b      0.26838    0.71882    0.45922   1.00
C4       0.25038    0.74982    0.47900   1.00
O3       0.19190    0.70901    0.52167   1.00
C5       0.22546    0.83879    0.38720   1.00
H2       0.23630    0.85399    0.41391   1.00
C5       0.19546    0.86449    0.36674   1.00
H2       0.25061    0.83353    0.36726   1.00
H2       0.17646    0.87809    0.38932   1.00
H2       0.17637    0.84500    0.34907   1.00
C5       0.21420    0.89604    0.34082   1.00
H2       0.23547    0.91324    0.35824   1.00
C5       0.18296    0.92391    0.32453   1.00
H2       0.22931    0.88286    0.31507   1.00
C5       0.13039    0.70788    0.49017   1.00
H2       0.11599    0.68875    0.51215   1.00
H2       0.14619    0.68836    0.46952   1.00
C5       0.10002    0.73246    0.46800   1.00
C5       0.06738    0.70592    0.45225   1.00
H2       0.42018    0.82910    0.69286   1.00
H2       0.45409    0.78751    0.68447   1.00
H2       0.44027    0.82003    0.64323   1.00
H2       0.27076    0.52817    0.53105   1.00
H2       0.31565    0.54495    0.50551   1.00
H2       0.30144    0.56728    0.55293   1.00
H2       0.19156    0.93350    0.29387   1.00
H2       0.15363    0.90827    0.32344   1.00
H2       0.18055    0.95060    0.34423   1.00
H2       0.07605    0.67407    0.45634   1.00
H2       0.03920    0.71196    0.46884   1.00
H2       0.06273    0.71207    0.41990   1.00
C5       0.29848    1.13218    0.36715   1.00
H2       0.31946    1.14745    0.34776   1.00
H2       0.31603    1.11090    0.38418   1.00
C5       0.27900    1.16194    0.39459   1.00
C5       0.30564    1.17123    0.42955   1.00
H2       0.25081    1.15015    0.40559   1.00
O3       0.19015    0.98000    0.28786   1.00
C4       0.25018    1.02100    0.24962   1.00
C3c      0.26943    1.04243    0.27877   1.00
H1       0.28476    1.02725    0.30178   1.00
C3d      0.23086    1.04135    0.21959   1.00
C3       0.26879    1.08354    0.27908   1.00
O2       0.29216    1.10248    0.30568   1.00
C3       0.22953    1.08227    0.22022   1.00
H1       0.21319    1.09657    0.19735   1.00
C2       0.24848    1.10439    0.24972   1.00
C5       0.15528    0.97879    0.26594   1.00
H2       0.14468    0.94838    0.26137   1.00
H2       0.15930    0.99266    0.23675   1.00
C5       0.12432    1.00129    0.28861   1.00
H2       0.13538    1.03137    0.29413   1.00
H2       0.12029    0.98698    0.31754   1.00
C5       0.08553    1.00262    0.26600   1.00
H2       0.07445    0.97268    0.26014   1.00
H2       0.08922    1.01811    0.23770   1.00
C5       0.05447    1.02445    0.29002   1.00
C5       0.23326    1.01105    0.16037   1.00
C5       0.27063    1.11070    0.33991   1.00
H2       0.25683    0.99088    0.16992   1.00
H2       0.24687    1.03712    0.14640   1.00
H2       0.26047    1.08300    0.35368   1.00
H2       0.24421    1.12895    0.33398   1.00
H2       0.27361    1.19030    0.37938   1.00
H2       0.24761    0.94247    0.11344   1.00
H2       0.25449    0.98763    0.08647   1.00
C2       0.24736    0.89605    0.24953   1.00
C3       0.27885    0.91597    0.23196   1.00
O2       0.30347    0.89674    0.20657   1.00
C3       0.21823    0.91826    0.26858   1.00
H1       0.19428    0.90385    0.28318   1.00
C3a      0.28002    0.95713    0.23289   1.00
H1       0.30312    0.97202    0.21739   1.00
C3b      0.21882    0.95922    0.26838   1.00
C4       0.24982    0.97900    0.25038   1.00
O3       0.20901    1.02167    0.19190   1.00
C5       0.33879    0.88720    0.22546   1.00
H2       0.35399    0.91391    0.23630   1.00
C5       0.36449    0.86674    0.19546   1.00
H2       0.33353    0.86726    0.25061   1.00
H2       0.37809    0.88932    0.17646   1.00
H2       0.34500    0.84907    0.17637   1.00
C5       0.39604    0.84082    0.21420   1.00
H2       0.41324    0.85824    0.23547   1.00
C5       0.42391    0.82453    0.18296   1.00
H2       0.38286    0.81507    0.22931   1.00
C5       0.20788    0.99017    0.13039   1.00
H2       0.18875    1.01215    0.11599   1.00
H2       0.18836    0.96952    0.14619   1.00
C5       0.23246    0.96800    0.10002   1.00
C5       0.20592    0.95225    0.06738   1.00
H2       0.32910    1.19286    0.42018   1.00
H2       0.28751    1.18447    0.45409   1.00
H2       0.32003    1.14323    0.44027   1.00
H2       0.02817    1.03105    0.27076   1.00
H2       0.04495    1.00551    0.31565   1.00
H2       0.06728    1.05293    0.30144   1.00
H2       0.43350    0.79387    0.19156   1.00
H2       0.40827    0.82344    0.15363   1.00
H2       0.45060    0.84423    0.18055   1.00
H2       0.17407    0.95634    0.07605   1.00
H2       0.21196    0.96884    0.03920   1.00
H2       0.21207    0.91990    0.06273   1.00
C5       -0.13218   0.86715    0.20152   1.00
H2       -0.14745   0.84776    0.18054   1.00
H2       -0.11090   0.88418    0.18397   1.00
C5       -0.16194   0.89459    0.22100   1.00
C5       -0.17123   0.92955    0.19436   1.00
H2       -0.15015   0.90559    0.24919   1.00
O3       0.02000    0.78786    0.30985   1.00
C4       -0.02100   0.74962    0.24982   1.00
C3c      -0.04243   0.77877    0.23057   1.00
H1       -0.02725   0.80178    0.21524   1.00
C3d      -0.04135   0.71959    0.26914   1.00
C3       -0.08354   0.77908    0.23121   1.00
O2       -0.10248   0.80568    0.20784   1.00
C3       -0.08227   0.72022    0.27047   1.00
H1       -0.09657   0.69735    0.28681   1.00
C2       -0.10439   0.74972    0.25152   1.00
C5       0.02121    0.76594    0.34472   1.00
H2       0.05162    0.76137    0.35532   1.00
H2       0.00734    0.73675    0.34070   1.00
C5       -0.00129   0.78861    0.37568   1.00
H2       -0.03137   0.79413    0.36462   1.00
H2       0.01302    0.81754    0.37971   1.00
C5       -0.00262   0.76600    0.41447   1.00
H2       0.02732    0.76014    0.42555   1.00
H2       -0.01811   0.73770    0.41078   1.00
C5       -0.02445   0.79002    0.44553   1.00
C5       -0.01105   0.66037    0.26674   1.00
C5       -0.11070   0.83991    0.22937   1.00
H2       0.00912    0.66992    0.24317   1.00
H2       -0.03712   0.64640    0.25313   1.00
H2       -0.08300   0.85368    0.23953   1.00
H2       -0.12895   0.83398    0.25579   1.00
H2       -0.19030   0.87938    0.22639   1.00
H2       0.05753    0.61344    0.25239   1.00
H2       0.01237    0.58647    0.24551   1.00
C2       0.10395    0.74953    0.25264   1.00
C3       0.08403    0.73196    0.22115   1.00
O2       0.10326    0.70657    0.19653   1.00
C3       0.08174    0.76858    0.28177   1.00
H1       0.09615    0.78318    0.30572   1.00
C3a      0.04287    0.73289    0.21998   1.00
H1       0.02798    0.71739    0.19688   1.00
C3b      0.04078    0.76838    0.28118   1.00
C4       0.02100    0.75038    0.25018   1.00
O3       -0.02167   0.69190    0.29099   1.00
C5       0.11280    0.72546    0.16121   1.00
H2       0.08609    0.73630    0.14601   1.00
C5       0.13326    0.69546    0.13551   1.00
H2       0.13274    0.75061    0.16647   1.00
H2       0.11068    0.67646    0.12191   1.00
H2       0.15093    0.67637    0.15500   1.00
C5       0.15918    0.71420    0.10396   1.00
H2       0.14176    0.73547    0.08676   1.00
C5       0.17547    0.68296    0.07609   1.00
H2       0.18493    0.72931    0.11714   1.00
C5       0.00983    0.63039    0.29212   1.00
H2       -0.01215   0.61599    0.31125   1.00
H2       0.03048    0.64619    0.31164   1.00
C5       0.03200    0.60002    0.26754   1.00
C5       0.04775    0.56738    0.29408   1.00
H2       -0.19286   0.92018    0.17090   1.00
H2       -0.18447   0.95409    0.21249   1.00
H2       -0.14323   0.94027    0.17997   1.00
H2       -0.03105   0.77076    0.47183   1.00
H2       -0.00551   0.81565    0.45505   1.00
H2       -0.05293   0.80144    0.43272   1.00
H2       0.20613    0.69156    0.06650   1.00
H2       0.17656    0.65363    0.09173   1.00
H2       0.15577    0.68055    0.04940   1.00
H2       0.04366    0.57605    0.32593   1.00
H2       0.03116    0.53920    0.28804   1.00
H2       0.08010    0.56273    0.28793   1.00
C5       0.63218    0.86715    0.29848   1.00
H2       0.64745    0.84776    0.31946   1.00
H2       0.61090    0.88418    0.31603   1.00
C5       0.66194    0.89459    0.27900   1.00
C5       0.67123    0.92955    0.30564   1.00
H2       0.65015    0.90559    0.25081   1.00
O3       0.48000    0.78786    0.19015   1.00
C4       0.52100    0.74962    0.25018   1.00
C3c      0.54243    0.77877    0.26943   1.00
H1       0.52725    0.80178    0.28476   1.00
C3d      0.54135    0.71959    0.23086   1.00
C3       0.58354    0.77908    0.26879   1.00
O2       0.60248    0.80568    0.29216   1.00
C3       0.58227    0.72022    0.22953   1.00
H1       0.59657    0.69735    0.21319   1.00
C2       0.60439    0.74972    0.24848   1.00
C5       0.47879    0.76594    0.15528   1.00
H2       0.44838    0.76137    0.14468   1.00
H2       0.49266    0.73675    0.15930   1.00
C5       0.50129    0.78861    0.12432   1.00
H2       0.53137    0.79413    0.13538   1.00
H2       0.48698    0.81754    0.12029   1.00
C5       0.50262    0.76600    0.08553   1.00
H2       0.47268    0.76014    0.07445   1.00
H2       0.51811    0.73770    0.08922   1.00
C5       0.52445    0.79002    0.05447   1.00
C5       0.51105    0.66037    0.23326   1.00
C5       0.61070    0.83991    0.27063   1.00
H2       0.49088    0.66992    0.25683   1.00
H2       0.53712    0.64640    0.24687   1.00
H2       0.58300    0.85368    0.26047   1.00
H2       0.62895    0.83398    0.24421   1.00
H2       0.69030    0.87938    0.27361   1.00
H2       0.44247    0.61344    0.24761   1.00
H2       0.48763    0.58647    0.25449   1.00
C2       0.39605    0.74953    0.24736   1.00
C3       0.41597    0.73196    0.27885   1.00
O2       0.39674    0.70657    0.30347   1.00
C3       0.41826    0.76858    0.21823   1.00
H1       0.40385    0.78318    0.19428   1.00
C3a      0.45713    0.73289    0.28002   1.00
H1       0.47202    0.71739    0.30312   1.00
C3b      0.45922    0.76838    0.21882   1.00
C4       0.47900    0.75038    0.24982   1.00
O3       0.52167    0.69190    0.20901   1.00
C5       0.38720    0.72546    0.33879   1.00
H2       0.41391    0.73630    0.35399   1.00
C5       0.36674    0.69546    0.36449   1.00
H2       0.36726    0.75061    0.33353   1.00
H2       0.38932    0.67646    0.37809   1.00
H2       0.34907    0.67637    0.34500   1.00
C5       0.34082    0.71420    0.39604   1.00
H2       0.35824    0.73547    0.41324   1.00
C5       0.32453    0.68296    0.42391   1.00
H2       0.31507    0.72931    0.38286   1.00
C5       0.49017    0.63039    0.20788   1.00
H2       0.51215    0.61599    0.18875   1.00
H2       0.46952    0.64619    0.18836   1.00
C5       0.46800    0.60002    0.23246   1.00
C5       0.45225    0.56738    0.20592   1.00
H2       0.69286    0.92018    0.32910   1.00
H2       0.68447    0.95409    0.28751   1.00
H2       0.64323    0.94027    0.32003   1.00
H2       0.53105    0.77076    0.02817   1.00
H2       0.50551    0.81565    0.04495   1.00
H2       0.55293    0.80144    0.06728   1.00
H2       0.29387    0.69156    0.43350   1.00
H2       0.32344    0.65363    0.40827   1.00
H2       0.34423    0.68055    0.45060   1.00
H2       0.45634    0.57605    0.17407   1.00
H2       0.46884    0.53920    0.21196   1.00
H2       0.41990    0.56273    0.21207   1.00
C5       0.20152    0.36782    0.36715   1.00
H2       0.18054    0.35255    0.34776   1.00
H2       0.18397    0.38910    0.38418   1.00
C5       0.22100    0.33806    0.39459   1.00
C5       0.19436    0.32877    0.42955   1.00
H2       0.24919    0.34985    0.40559   1.00
O3       0.30985    0.52000    0.28786   1.00
C4       0.24982    0.47900    0.24962   1.00
C3c      0.23057    0.45757    0.27877   1.00
H1       0.21524    0.47275    0.30178   1.00
C3d      0.26914    0.45865    0.21959   1.00
C3       0.23121    0.41646    0.27908   1.00
O2       0.20784    0.39752    0.30568   1.00
C3       0.27047    0.41773    0.22022   1.00
H1       0.28681    0.40343    0.19735   1.00
C2       0.25152    0.39561    0.24972   1.00
C5       0.34472    0.52121    0.26594   1.00
H2       0.35532    0.55162    0.26137   1.00
H2       0.34070    0.50734    0.23675   1.00
C5       0.37568    0.49871    0.28861   1.00
H2       0.36462    0.46863    0.29413   1.00
H2       0.37971    0.51302    0.31754   1.00
C5       0.41447    0.49738    0.26600   1.00
H2       0.42555    0.52732    0.26014   1.00
H2       0.41078    0.48189    0.23770   1.00
C5       0.44553    0.47555    0.29002   1.00
C5       0.26674    0.48895    0.16037   1.00
C5       0.22937    0.38930    0.33991   1.00
H2       0.24317    0.50912    0.16992   1.00
H2       0.25313    0.46288    0.14640   1.00
H2       0.23953    0.41700    0.35368   1.00
H2       0.25579    0.37105    0.33398   1.00
H2       0.22639    0.30970    0.37938   1.00
H2       0.25239    0.55753    0.11344   1.00
H2       0.24551    0.51237    0.08647   1.00
C2       0.25264    0.60395    0.24953   1.00
C3       0.22115    0.58403    0.23196   1.00
O2       0.19653    0.60326    0.20657   1.00
C3       0.28177    0.58174    0.26858   1.00
H1       0.30572    0.59615    0.28318   1.00
C3a      0.21998    0.54287    0.23289   1.00
H1       0.19688    0.52798    0.21739   1.00
C3b      0.28118    0.54078    0.26838   1.00
C4       0.25018    0.52100    0.25038   1.00
O3       0.29099    0.47833    0.19190   1.00
C5       0.16121    0.61280    0.22546   1.00
H2       0.14601    0.58609    0.23630   1.00
C5       0.13551    0.63326    0.19546   1.00
H2       0.16647    0.63274    0.25061   1.00
H2       0.12191    0.61068    0.17646   1.00
H2       0.15500    0.65093    0.17637   1.00
C5       0.10396    0.65918    0.21420   1.00
H2       0.08676    0.64176    0.23547   1.00
C5       0.07609    0.67547    0.18296   1.00
H2       0.11714    0.68493    0.22931   1.00
C5       0.29212    0.50983    0.13039   1.00
H2       0.31125    0.48785    0.11599   1.00
H2       0.31164    0.53048    0.14619   1.00
C5       0.26754    0.53200    0.10002   1.00
C5       0.29408    0.54775    0.06738   1.00
H2       0.17090    0.30714    0.42018   1.00
H2       0.21249    0.31553    0.45409   1.00
H2       0.17997    0.35677    0.44027   1.00
H2       0.47183    0.46895    0.27076   1.00
H2       0.45505    0.49449    0.31565   1.00
H2       0.43272    0.44707    0.30144   1.00
H2       0.06650    0.70613    0.19156   1.00
H2       0.09173    0.67656    0.15363   1.00
H2       0.04940    0.65577    0.18055   1.00
H2       0.32593    0.54366    0.07605   1.00
H2       0.28804    0.53116    0.03920   1.00
H2       0.28793    0.58010    0.06273   1.00
C5       0.36715    0.70152    -0.13218   1.00
H2       0.34776    0.68054    -0.14745   1.00
H2       0.38418    0.68397    -0.11090   1.00
C5       0.39459    0.72100    -0.16194   1.00
C5       0.42955    0.69436    -0.17123   1.00
H2       0.40559    0.74919    -0.15015   1.00
O3       0.28786    0.80985    0.02000   1.00
C4       0.24962    0.74982    -0.02100   1.00
C3c      0.27877    0.73057    -0.04243   1.00
H1       0.30178    0.71524    -0.02725   1.00
C3d      0.21959    0.76914    -0.04135   1.00
C3       0.27908    0.73121    -0.08354   1.00
O2       0.30568    0.70784    -0.10248   1.00
C3       0.22022    0.77047    -0.08227   1.00
H1       0.19735    0.78681    -0.09657   1.00
C2       0.24972    0.75152    -0.10439   1.00
C5       0.26594    0.84472    0.02121   1.00
H2       0.26137    0.85532    0.05162   1.00
H2       0.23675    0.84070    0.00734   1.00
C5       0.28861    0.87568    -0.00129   1.00
H2       0.29413    0.86462    -0.03137   1.00
H2       0.31754    0.87971    0.01302   1.00
C5       0.26600    0.91447    -0.00262   1.00
H2       0.26014    0.92555    0.02732   1.00
H2       0.23770    0.91078    -0.01811   1.00
C5       0.29002    0.94553    -0.02445   1.00
C5       0.16037    0.76674    -0.01105   1.00
C5       0.33991    0.72937    -0.11070   1.00
H2       0.16992    0.74317    0.00912   1.00
H2       0.14640    0.75313    -0.03712   1.00
H2       0.35368    0.73953    -0.08300   1.00
H2       0.33398    0.75579    -0.12895   1.00
H2       0.37938    0.72639    -0.19030   1.00
H2       0.11344    0.75239    0.05753   1.00
H2       0.08647    0.74551    0.01237   1.00
C2       0.24953    0.75264    0.10395   1.00
C3       0.23196    0.72115    0.08403   1.00
O2       0.20657    0.69653    0.10326   1.00
C3       0.26858    0.78177    0.08174   1.00
H1       0.28318    0.80572    0.09615   1.00
C3a      0.23289    0.71998    0.04287   1.00
H1       0.21739    0.69688    0.02798   1.00
C3b      0.26838    0.78118    0.04078   1.00
C4       0.25038    0.75018    0.02100   1.00
O3       0.19190    0.79099    -0.02167   1.00
C5       0.22546    0.66121    0.11280   1.00
H2       0.23630    0.64601    0.08609   1.00
C5       0.19546    0.63551    0.13326   1.00
H2       0.25061    0.66647    0.13274   1.00
H2       0.17646    0.62191    0.11068   1.00
H2       0.17637    0.65500    0.15093   1.00
C5       0.21420    0.60396    0.15918   1.00
H2       0.23547    0.58676    0.14176   1.00
C5       0.18296    0.57609    0.17547   1.00
H2       0.22931    0.61714    0.18493   1.00
C5       0.13039    0.79212    0.00983   1.00
H2       0.11599    0.81125    -0.01215   1.00
H2       0.14619    0.81164    0.03048   1.00
C5       0.10002    0.76754    0.03200   1.00
C5       0.06738    0.79408    0.04775   1.00
H2       0.42018    0.67090    -0.19286   1.00
H2       0.45409    0.71249    -0.18447   1.00
H2       0.44027    0.67997    -0.14323   1.00
H2       0.27076    0.97183    -0.03105   1.00
H2       0.31565    0.95505    -0.00551   1.00
H2       0.30144    0.93272    -0.05293   1.00
H2       0.19156    0.56650    0.20613   1.00
H2       0.15363    0.59173    0.17656   1.00
H2       0.18055    0.54940    0.15577   1.00
H2       0.07605    0.82593    0.04366   1.00
H2       0.03920    0.78804    0.03116   1.00
H2       0.06273    0.78793    0.08010   1.00
C5       0.86715    0.29848    0.63218   1.00
H2       0.84776    0.31946    0.64745   1.00
H2       0.88418    0.31603    0.61090   1.00
C5       0.89459    0.27900    0.66194   1.00
C5       0.92955    0.30564    0.67123   1.00
H2       0.90559    0.25081    0.65015   1.00
O3       0.78786    0.19015    0.48000   1.00
C4       0.74962    0.25018    0.52100   1.00
C3c      0.77877    0.26943    0.54243   1.00
H1       0.80178    0.28476    0.52725   1.00
C3d      0.71959    0.23086    0.54135   1.00
C3       0.77908    0.26879    0.58354   1.00
O2       0.80568    0.29216    0.60248   1.00
C3       0.72022    0.22953    0.58227   1.00
H1       0.69735    0.21319    0.59657   1.00
C2       0.74972    0.24848    0.60439   1.00
C5       0.76594    0.15528    0.47879   1.00
H2       0.76137    0.14468    0.44838   1.00
H2       0.73675    0.15930    0.49266   1.00
C5       0.78861    0.12432    0.50129   1.00
H2       0.79413    0.13538    0.53137   1.00
H2       0.81754    0.12029    0.48698   1.00
C5       0.76600    0.08553    0.50262   1.00
H2       0.76014    0.07445    0.47268   1.00
H2       0.73770    0.08922    0.51811   1.00
C5       0.79002    0.05447    0.52445   1.00
C5       0.66037    0.23326    0.51105   1.00
C5       0.83991    0.27063    0.61070   1.00
H2       0.66992    0.25683    0.49088   1.00
H2       0.64640    0.24687    0.53712   1.00
H2       0.85368    0.26047    0.58300   1.00
H2       0.83398    0.24421    0.62895   1.00
H2       0.87938    0.27361    0.69030   1.00
H2       0.61344    0.24761    0.44247   1.00
H2       0.58647    0.25449    0.48763   1.00
C2       0.74953    0.24736    0.39605   1.00
C3       0.73196    0.27885    0.41597   1.00
O2       0.70657    0.30347    0.39674   1.00
C3       0.76858    0.21823    0.41826   1.00
H1       0.78318    0.19428    0.40385   1.00
C3a      0.73289    0.28002    0.45713   1.00
H1       0.71739    0.30312    0.47202   1.00
C3b      0.76838    0.21882    0.45922   1.00
C4       0.75038    0.24982    0.47900   1.00
O3       0.69190    0.20901    0.52167   1.00
C5       0.72546    0.33879    0.38720   1.00
H2       0.73630    0.35399    0.41391   1.00
C5       0.69546    0.36449    0.36674   1.00
H2       0.75061    0.33353    0.36726   1.00
H2       0.67646    0.37809    0.38932   1.00
H2       0.67637    0.34500    0.34907   1.00
C5       0.71420    0.39604    0.34082   1.00
H2       0.73547    0.41324    0.35824   1.00
C5       0.68296    0.42391    0.32453   1.00
H2       0.72931    0.38286    0.31507   1.00
C5       0.63039    0.20788    0.49017   1.00
H2       0.61599    0.18875    0.51215   1.00
H2       0.64619    0.18836    0.46952   1.00
C5       0.60002    0.23246    0.46800   1.00
C5       0.56738    0.20592    0.45225   1.00
H2       0.92018    0.32910    0.69286   1.00
H2       0.95409    0.28751    0.68447   1.00
H2       0.94027    0.32003    0.64323   1.00
H2       0.77076    0.02817    0.53105   1.00
H2       0.81565    0.04495    0.50551   1.00
H2       0.80144    0.06728    0.55293   1.00
H2       0.69156    0.43350    0.29387   1.00
H2       0.65363    0.40827    0.32344   1.00
H2       0.68055    0.45060    0.34423   1.00
H2       0.57605    0.17407    0.45634   1.00
H2       0.53920    0.21196    0.46884   1.00
H2       0.56273    0.21207    0.41990   1.00
C5       0.79848    0.63218    0.36715   1.00
H2       0.81946    0.64745    0.34776   1.00
H2       0.81603    0.61090    0.38418   1.00
C5       0.77900    0.66194    0.39459   1.00
C5       0.80564    0.67123    0.42955   1.00
H2       0.75081    0.65015    0.40559   1.00
O3       0.69015    0.48000    0.28786   1.00
C4       0.75018    0.52100    0.24962   1.00
C3c      0.76943    0.54243    0.27877   1.00
H1       0.78476    0.52725    0.30178   1.00
C3d      0.73086    0.54135    0.21959   1.00
C3       0.76879    0.58354    0.27908   1.00
O2       0.79216    0.60248    0.30568   1.00
C3       0.72953    0.58227    0.22022   1.00
H1       0.71319    0.59657    0.19735   1.00
C2       0.74848    0.60439    0.24972   1.00
C5       0.65528    0.47879    0.26594   1.00
H2       0.64468    0.44838    0.26137   1.00
H2       0.65930    0.49266    0.23675   1.00
C5       0.62432    0.50129    0.28861   1.00
H2       0.63538    0.53137    0.29413   1.00
H2       0.62029    0.48698    0.31754   1.00
C5       0.58553    0.50262    0.26600   1.00
H2       0.57445    0.47268    0.26014   1.00
H2       0.58922    0.51811    0.23770   1.00
C5       0.55447    0.52445    0.29002   1.00
C5       0.73326    0.51105    0.16037   1.00
C5       0.77063    0.61070    0.33991   1.00
H2       0.75683    0.49088    0.16992   1.00
H2       0.74687    0.53712    0.14640   1.00
H2       0.76047    0.58300    0.35368   1.00
H2       0.74421    0.62895    0.33398   1.00
H2       0.77361    0.69030    0.37938   1.00
H2       0.74761    0.44247    0.11344   1.00
H2       0.75449    0.48763    0.08647   1.00
C2       0.74736    0.39605    0.24953   1.00
C3       0.77885    0.41597    0.23196   1.00
O2       0.80347    0.39674    0.20657   1.00
C3       0.71823    0.41826    0.26858   1.00
H1       0.69428    0.40385    0.28318   1.00
C3a      0.78002    0.45713    0.23289   1.00
H1       0.80312    0.47202    0.21739   1.00
C3b      0.71882    0.45922    0.26838   1.00
C4       0.74982    0.47900    0.25038   1.00
O3       0.70901    0.52167    0.19190   1.00
C5       0.83879    0.38720    0.22546   1.00
H2       0.85399    0.41391    0.23630   1.00
C5       0.86449    0.36674    0.19546   1.00
H2       0.83353    0.36726    0.25061   1.00
H2       0.87809    0.38932    0.17646   1.00
H2       0.84500    0.34907    0.17637   1.00
C5       0.89604    0.34082    0.21420   1.00
H2       0.91324    0.35824    0.23547   1.00
C5       0.92391    0.32453    0.18296   1.00
H2       0.88286    0.31507    0.22931   1.00
C5       0.70788    0.49017    0.13039   1.00
H2       0.68875    0.51215    0.11599   1.00
H2       0.68836    0.46952    0.14619   1.00
C5       0.73246    0.46800    0.10002   1.00
C5       0.70592    0.45225    0.06738   1.00
H2       0.82910    0.69286    0.42018   1.00
H2       0.78751    0.68447    0.45409   1.00
H2       0.82003    0.64323    0.44027   1.00
H2       0.52817    0.53105    0.27076   1.00
H2       0.54495    0.50551    0.31565   1.00
H2       0.56728    0.55293    0.30144   1.00
H2       0.93350    0.29387    0.19156   1.00
H2       0.90827    0.32344    0.15363   1.00
H2       0.95060    0.34423    0.18055   1.00
H2       0.67407    0.45634    0.07605   1.00
H2       0.71196    0.46884    0.03920   1.00
H2       0.71207    0.41990    0.06273   1.00
C5       0.36782    0.36715    0.20152   1.00
H2       0.35255    0.34776    0.18054   1.00
H2       0.38910    0.38418    0.18397   1.00
C5       0.33806    0.39459    0.22100   1.00
C5       0.32877    0.42955    0.19436   1.00
H2       0.34985    0.40559    0.24919   1.00
O3       0.52000    0.28786    0.30985   1.00
C4       0.47900    0.24962    0.24982   1.00
C3c      0.45757    0.27877    0.23057   1.00
H1       0.47275    0.30178    0.21524   1.00
C3d      0.45865    0.21959    0.26914   1.00
C3       0.41646    0.27908    0.23121   1.00
O2       0.39752    0.30568    0.20784   1.00
C3       0.41773    0.22022    0.27047   1.00
H1       0.40343    0.19735    0.28681   1.00
C2       0.39561    0.24972    0.25152   1.00
C5       0.52121    0.26594    0.34472   1.00
H2       0.55162    0.26137    0.35532   1.00
H2       0.50734    0.23675    0.34070   1.00
C5       0.49871    0.28861    0.37568   1.00
H2       0.46863    0.29413    0.36462   1.00
H2       0.51302    0.31754    0.37971   1.00
C5       0.49738    0.26600    0.41447   1.00
H2       0.52732    0.26014    0.42555   1.00
H2       0.48189    0.23770    0.41078   1.00
C5       0.47555    0.29002    0.44553   1.00
C5       0.48895    0.16037    0.26674   1.00
C5       0.38930    0.33991    0.22937   1.00
H2       0.50912    0.16992    0.24317   1.00
H2       0.46288    0.14640    0.25313   1.00
H2       0.41700    0.35368    0.23953   1.00
H2       0.37105    0.33398    0.25579   1.00
H2       0.30970    0.37938    0.22639   1.00
H2       0.55753    0.11344    0.25239   1.00
H2       0.51237    0.08647    0.24551   1.00
C2       0.60395    0.24953    0.25264   1.00
C3       0.58403    0.23196    0.22115   1.00
O2       0.60326    0.20657    0.19653   1.00
C3       0.58174    0.26858    0.28177   1.00
H1       0.59615    0.28318    0.30572   1.00
C3a      0.54287    0.23289    0.21998   1.00
H1       0.52798    0.21739    0.19688   1.00
C3b      0.54078    0.26838    0.28118   1.00
C4       0.52100    0.25038    0.25018   1.00
O3       0.47833    0.19190    0.29099   1.00
C5       0.61280    0.22546    0.16121   1.00
H2       0.58609    0.23630    0.14601   1.00
C5       0.63326    0.19546    0.13551   1.00
H2       0.63274    0.25061    0.16647   1.00
H2       0.61068    0.17646    0.12191   1.00
H2       0.65093    0.17637    0.15500   1.00
C5       0.65918    0.21420    0.10396   1.00
H2       0.64176    0.23547    0.08676   1.00
C5       0.67547    0.18296    0.07609   1.00
H2       0.68493    0.22931    0.11714   1.00
C5       0.50983    0.13039    0.29212   1.00
H2       0.48785    0.11599    0.31125   1.00
H2       0.53048    0.14619    0.31164   1.00
C5       0.53200    0.10002    0.26754   1.00
C5       0.54775    0.06738    0.29408   1.00
H2       0.30714    0.42018    0.17090   1.00
H2       0.31553    0.45409    0.21249   1.00
H2       0.35677    0.44027    0.17997   1.00
H2       0.46895    0.27076    0.47183   1.00
H2       0.49449    0.31565    0.45505   1.00
H2       0.44707    0.30144    0.43272   1.00
H2       0.70613    0.19156    0.06650   1.00
H2       0.67656    0.15363    0.09173   1.00
H2       0.65577    0.18055    0.04940   1.00
H2       0.54366    0.07605    0.32593   1.00
H2       0.53116    0.03920    0.28804   1.00
H2       0.58010    0.06273    0.28793   1.00
C5       1.13218    0.36715    0.29848   1.00
H2       1.14745    0.34776    0.31946   1.00
H2       1.11090    0.38418    0.31603   1.00
C5       1.16194    0.39459    0.27900   1.00
C5       1.17123    0.42955    0.30564   1.00
H2       1.15015    0.40559    0.25081   1.00
O3       0.98000    0.28786    0.19015   1.00
C4       1.02100    0.24962    0.25018   1.00
C3c      1.04243    0.27877    0.26943   1.00
H1       1.02725    0.30178    0.28476   1.00
C3d      1.04135    0.21959    0.23086   1.00
C3       1.08354    0.27908    0.26879   1.00
O2       1.10248    0.30568    0.29216   1.00
C3       1.08227    0.22022    0.22953   1.00
H1       1.09657    0.19735    0.21319   1.00
C2       1.10439    0.24972    0.24848   1.00
C5       0.97879    0.26594    0.15528   1.00
H2       0.94838    0.26137    0.14468   1.00
H2       0.99266    0.23675    0.15930   1.00
C5       1.00129    0.28861    0.12432   1.00
H2       1.03137    0.29413    0.13538   1.00
H2       0.98698    0.31754    0.12029   1.00
C5       1.00262    0.26600    0.08553   1.00
H2       0.97268    0.26014    0.07445   1.00
H2       1.01811    0.23770    0.08922   1.00
C5       1.02445    0.29002    0.05447   1.00
C5       1.01105    0.16037    0.23326   1.00
C5       1.11070    0.33991    0.27063   1.00
H2       0.99088    0.16992    0.25683   1.00
H2       1.03712    0.14640    0.24687   1.00
H2       1.08300    0.35368    0.26047   1.00
H2       1.12895    0.33398    0.24421   1.00
H2       1.19030    0.37938    0.27361   1.00
H2       0.94247    0.11344    0.24761   1.00
H2       0.98763    0.08647    0.25449   1.00
C2       0.89605    0.24953    0.24736   1.00
C3       0.91597    0.23196    0.27885   1.00
O2       0.89674    0.20657    0.30347   1.00
C3       0.91826    0.26858    0.21823   1.00
H1       0.90385    0.28318    0.19428   1.00
C3a      0.95713    0.23289    0.28002   1.00
H1       0.97202    0.21739    0.30312   1.00
C3b      0.95922    0.26838    0.21882   1.00
C4       0.97900    0.25038    0.24982   1.00
O3       1.02167    0.19190    0.20901   1.00
C5       0.88720    0.22546    0.33879   1.00
H2       0.91391    0.23630    0.35399   1.00
C5       0.86674    0.19546    0.36449   1.00
H2       0.86726    0.25061    0.33353   1.00
H2       0.88932    0.17646    0.37809   1.00
H2       0.84907    0.17637    0.34500   1.00
C5       0.84082    0.21420    0.39604   1.00
H2       0.85824    0.23547    0.41324   1.00
C5       0.82453    0.18296    0.42391   1.00
H2       0.81507    0.22931    0.38286   1.00
C5       0.99017    0.13039    0.20788   1.00
H2       1.01215    0.11599    0.18875   1.00
H2       0.96952    0.14619    0.18836   1.00
C5       0.96800    0.10002    0.23246   1.00
C5       0.95225    0.06738    0.20592   1.00
H2       1.19286    0.42018    0.32910   1.00
H2       1.18447    0.45409    0.28751   1.00
H2       1.14323    0.44027    0.32003   1.00
H2       1.03105    0.27076    0.02817   1.00
H2       1.00551    0.31565    0.04495   1.00
H2       1.05293    0.30144    0.06728   1.00
H2       0.79387    0.19156    0.43350   1.00
H2       0.82344    0.15363    0.40827   1.00
H2       0.84423    0.18055    0.45060   1.00
H2       0.95634    0.07605    0.17407   1.00
H2       0.96884    0.03920    0.21196   1.00
H2       0.91990    0.06273    0.21207   1.00
C5       0.70152    -0.13218   0.36715   1.00
H2       0.68054    -0.14745   0.34776   1.00
H2       0.68397    -0.11090   0.38418   1.00
C5       0.72100    -0.16194   0.39459   1.00
C5       0.69436    -0.17123   0.42955   1.00
H2       0.74919    -0.15015   0.40559   1.00
O3       0.80985    0.02000    0.28786   1.00
C4       0.74982    -0.02100   0.24962   1.00
C3c      0.73057    -0.04243   0.27877   1.00
H1       0.71524    -0.02725   0.30178   1.00
C3d      0.76914    -0.04135   0.21959   1.00
C3       0.73121    -0.08354   0.27908   1.00
O2       0.70784    -0.10248   0.30568   1.00
C3       0.77047    -0.08227   0.22022   1.00
H1       0.78681    -0.09657   0.19735   1.00
C2       0.75152    -0.10439   0.24972   1.00
C5       0.84472    0.02121    0.26594   1.00
H2       0.85532    0.05162    0.26137   1.00
H2       0.84070    0.00734    0.23675   1.00
C5       0.87568    -0.00129   0.28861   1.00
H2       0.86462    -0.03137   0.29413   1.00
H2       0.87971    0.01302    0.31754   1.00
C5       0.91447    -0.00262   0.26600   1.00
H2       0.92555    0.02732    0.26014   1.00
H2       0.91078    -0.01811   0.23770   1.00
C5       0.94553    -0.02445   0.29002   1.00
C5       0.76674    -0.01105   0.16037   1.00
C5       0.72937    -0.11070   0.33991   1.00
H2       0.74317    0.00912    0.16992   1.00
H2       0.75313    -0.03712   0.14640   1.00
H2       0.73953    -0.08300   0.35368   1.00
H2       0.75579    -0.12895   0.33398   1.00
H2       0.72639    -0.19030   0.37938   1.00
H2       0.75239    0.05753    0.11344   1.00
H2       0.74551    0.01237    0.08647   1.00
C2       0.75264    0.10395    0.24953   1.00
C3       0.72115    0.08403    0.23196   1.00
O2       0.69653    0.10326    0.20657   1.00
C3       0.78177    0.08174    0.26858   1.00
H1       0.80572    0.09615    0.28318   1.00
C3a      0.71998    0.04287    0.23289   1.00
H1       0.69688    0.02798    0.21739   1.00
C3b      0.78118    0.04078    0.26838   1.00
C4       0.75018    0.02100    0.25038   1.00
O3       0.79099    -0.02167   0.19190   1.00
C5       0.66121    0.11280    0.22546   1.00
H2       0.64601    0.08609    0.23630   1.00
C5       0.63551    0.13326    0.19546   1.00
H2       0.66647    0.13274    0.25061   1.00
H2       0.62191    0.11068    0.17646   1.00
H2       0.65500    0.15093    0.17637   1.00
C5       0.60396    0.15918    0.21420   1.00
H2       0.58676    0.14176    0.23547   1.00
C5       0.57609    0.17547    0.18296   1.00
H2       0.61714    0.18493    0.22931   1.00
C5       0.79212    0.00983    0.13039   1.00
H2       0.81125    -0.01215   0.11599   1.00
H2       0.81164    0.03048    0.14619   1.00
C5       0.76754    0.03200    0.10002   1.00
C5       0.79408    0.04775    0.06738   1.00
H2       0.67090    -0.19286   0.42018   1.00
H2       0.71249    -0.18447   0.45409   1.00
H2       0.67997    -0.14323   0.44027   1.00
H2       0.97183    -0.03105   0.27076   1.00
H2       0.95505    -0.00551   0.31565   1.00
H2       0.93272    -0.05293   0.30144   1.00
H2       0.56650    0.20613    0.19156   1.00
H2       0.59173    0.17656    0.15363   1.00
H2       0.54940    0.15577    0.18055   1.00
H2       0.82593    0.04366    0.07605   1.00
H2       0.78804    0.03116    0.03920   1.00
H2       0.78793    0.08010    0.06273   1.00
C5       0.86715    0.20152    -0.13218   1.00
H2       0.84776    0.18054    -0.14745   1.00
H2       0.88418    0.18397    -0.11090   1.00
C5       0.89459    0.22100    -0.16194   1.00
C5       0.92955    0.19436    -0.17123   1.00
H2       0.90559    0.24919    -0.15015   1.00
O3       0.78786    0.30985    0.02000   1.00
C4       0.74962    0.24982    -0.02100   1.00
C3c      0.77877    0.23057    -0.04243   1.00
H1       0.80178    0.21524    -0.02725   1.00
C3d      0.71959    0.26914    -0.04135   1.00
C3       0.77908    0.23121    -0.08354   1.00
O2       0.80568    0.20784    -0.10248   1.00
C3       0.72022    0.27047    -0.08227   1.00
H1       0.69735    0.28681    -0.09657   1.00
C2       0.74972    0.25152    -0.10439   1.00
C5       0.76594    0.34472    0.02121   1.00
H2       0.76137    0.35532    0.05162   1.00
H2       0.73675    0.34070    0.00734   1.00
C5       0.78861    0.37568    -0.00129   1.00
H2       0.79413    0.36462    -0.03137   1.00
H2       0.81754    0.37971    0.01302   1.00
C5       0.76600    0.41447    -0.00262   1.00
H2       0.76014    0.42555    0.02732   1.00
H2       0.73770    0.41078    -0.01811   1.00
C5       0.79002    0.44553    -0.02445   1.00
C5       0.66037    0.26674    -0.01105   1.00
C5       0.83991    0.22937    -0.11070   1.00
H2       0.66992    0.24317    0.00912   1.00
H2       0.64640    0.25313    -0.03712   1.00
H2       0.85368    0.23953    -0.08300   1.00
H2       0.83398    0.25579    -0.12895   1.00
H2       0.87938    0.22639    -0.19030   1.00
H2       0.61344    0.25239    0.05753   1.00
H2       0.58647    0.24551    0.01237   1.00
C2       0.74953    0.25264    0.10395   1.00
C3       0.73196    0.22115    0.08403   1.00
O2       0.70657    0.19653    0.10326   1.00
C3       0.76858    0.28177    0.08174   1.00
H1       0.78318    0.30572    0.09615   1.00
C3a      0.73289    0.21998    0.04287   1.00
H1       0.71739    0.19688    0.02798   1.00
C3b      0.76838    0.28118    0.04078   1.00
C4       0.75038    0.25018    0.02100   1.00
O3       0.69190    0.29099    -0.02167   1.00
C5       0.72546    0.16121    0.11280   1.00
H2       0.73630    0.14601    0.08609   1.00
C5       0.69546    0.13551    0.13326   1.00
H2       0.75061    0.16647    0.13274   1.00
H2       0.67646    0.12191    0.11068   1.00
H2       0.67637    0.15500    0.15093   1.00
C5       0.71420    0.10396    0.15918   1.00
H2       0.73547    0.08676    0.14176   1.00
C5       0.68296    0.07609    0.17547   1.00
H2       0.72931    0.11714    0.18493   1.00
C5       0.63039    0.29212    0.00983   1.00
H2       0.61599    0.31125    -0.01215   1.00
H2       0.64619    0.31164    0.03048   1.00
C5       0.60002    0.26754    0.03200   1.00
C5       0.56738    0.29408    0.04775   1.00
H2       0.92018    0.17090    -0.19286   1.00
H2       0.95409    0.21249    -0.18447   1.00
H2       0.94027    0.17997    -0.14323   1.00
H2       0.77076    0.47183    -0.03105   1.00
H2       0.81565    0.45505    -0.00551   1.00
H2       0.80144    0.43272    -0.05293   1.00
H2       0.69156    0.06650    0.20613   1.00
H2       0.65363    0.09173    0.17656   1.00
H2       0.68055    0.04940    0.15577   1.00
H2       0.57605    0.32593    0.04366   1.00
H2       0.53920    0.28804    0.03116   1.00
H2       0.56273    0.28793    0.08010   1.00
C5       1.11715    1.04848    1.38218   1.00
H2       1.09776    1.06946    1.39745   1.00
H2       1.13418    1.06603    1.36090   1.00
C5       1.14459    1.02900    1.41194   1.00
C5       1.17955    1.05564    1.42123   1.00
H2       1.15559    1.00081    1.40015   1.00
O3       1.03786    0.94015    1.23000   1.00
C4       0.99962    1.00018    1.27100   1.00
C3c      1.02877    1.01943    1.29243   1.00
H1       1.05178    1.03476    1.27725   1.00
C3d      0.96959    0.98086    1.29135   1.00
C3       1.02908    1.01879    1.33354   1.00
O2       1.05568    1.04216    1.35248   1.00
C3       0.97022    0.97953    1.33227   1.00
H1       0.94735    0.96319    1.34657   1.00
C2       0.99972    0.99848    1.35439   1.00
C5       1.01594    0.90528    1.22879   1.00
H2       1.01137    0.89468    1.19838   1.00
H2       0.98675    0.90930    1.24266   1.00
C5       1.03861    0.87432    1.25129   1.00
H2       1.04413    0.88538    1.28137   1.00
H2       1.06754    0.87029    1.23698   1.00
C5       1.01600    0.83553    1.25262   1.00
H2       1.01014    0.82445    1.22268   1.00
H2       0.98770    0.83922    1.26811   1.00
C5       1.04002    0.80447    1.27445   1.00
C5       0.91037    0.98326    1.26105   1.00
C5       1.08991    1.02063    1.36070   1.00
H2       0.91992    1.00683    1.24088   1.00
H2       0.89640    0.99687    1.28712   1.00
H2       1.10368    1.01047    1.33300   1.00
H2       1.08398    0.99421    1.37895   1.00
H2       1.12938    1.02361    1.44030   1.00
H2       0.86344    0.99761    1.19247   1.00
H2       0.83647    1.00449    1.23763   1.00
C2       0.99953    0.99736    1.14605   1.00
C3       0.98196    1.02885    1.16597   1.00
O2       0.95657    1.05347    1.14674   1.00
C3       1.01858    0.96823    1.16826   1.00
H1       1.03318    0.94428    1.15385   1.00
C3a      0.98289    1.03002    1.20713   1.00
H1       0.96739    1.05312    1.22202   1.00
C3b      1.01838    0.96882    1.20922   1.00
C4       1.00038    0.99982    1.22900   1.00
O3       0.94190    0.95901    1.27167   1.00
C5       0.97546    1.08879    1.13720   1.00
H2       0.98630    1.10399    1.16391   1.00
C5       0.94546    1.11449    1.11674   1.00
H2       1.00061    1.08353    1.11726   1.00
H2       0.92646    1.12809    1.13932   1.00
H2       0.92637    1.09500    1.09907   1.00
C5       0.96420    1.14604    1.09082   1.00
H2       0.98547    1.16324    1.10824   1.00
C5       0.93296    1.17391    1.07453   1.00
H2       0.97931    1.13286    1.06507   1.00
C5       0.88039    0.95788    1.24017   1.00
H2       0.86599    0.93875    1.26215   1.00
H2       0.89619    0.93836    1.21952   1.00
C5       0.85002    0.98246    1.21800   1.00
C5       0.81738    0.95592    1.20225   1.00
H2       1.17018    1.07910    1.44286   1.00
H2       1.20409    1.03751    1.43447   1.00
H2       1.19027    1.07003    1.39323   1.00
H2       1.02076    0.77817    1.28105   1.00
H2       1.06565    0.79495    1.25551   1.00
H2       1.05144    0.81728    1.30293   1.00
H2       0.94156    1.18350    1.04387   1.00
H2       0.90363    1.15827    1.07344   1.00
H2       0.93055    1.20060    1.09423   1.00
H2       0.82605    0.92407    1.20634   1.00
H2       0.78920    0.96196    1.21884   1.00
H2       0.81273    0.96207    1.16990   1.00
C5       1.04848    1.38218    1.11715   1.00
H2       1.06946    1.39745    1.09776   1.00
H2       1.06603    1.36090    1.13418   1.00
C5       1.02900    1.41194    1.14459   1.00
C5       1.05564    1.42123    1.17955   1.00
H2       1.00081    1.40015    1.15559   1.00
O3       0.94015    1.23000    1.03786   1.00
C4       1.00018    1.27100    0.99962   1.00
C3c      1.01943    1.29243    1.02877   1.00
H1       1.03476    1.27725    1.05178   1.00
C3d      0.98086    1.29135    0.96959   1.00
C3       1.01879    1.33354    1.02908   1.00
O2       1.04216    1.35248    1.05568   1.00
C3       0.97953    1.33227    0.97022   1.00
H1       0.96319    1.34657    0.94735   1.00
C2       0.99848    1.35439    0.99972   1.00
C5       0.90528    1.22879    1.01594   1.00
H2       0.89468    1.19838    1.01137   1.00
H2       0.90930    1.24266    0.98675   1.00
C5       0.87432    1.25129    1.03861   1.00
H2       0.88538    1.28137    1.04413   1.00
H2       0.87029    1.23698    1.06754   1.00
C5       0.83553    1.25262    1.01600   1.00
H2       0.82445    1.22268    1.01014   1.00
H2       0.83922    1.26811    0.98770   1.00
C5       0.80447    1.27445    1.04002   1.00
C5       0.98326    1.26105    0.91037   1.00
C5       1.02063    1.36070    1.08991   1.00
H2       1.00683    1.24088    0.91992   1.00
H2       0.99687    1.28712    0.89640   1.00
H2       1.01047    1.33300    1.10368   1.00
H2       0.99421    1.37895    1.08398   1.00
H2       1.02361    1.44030    1.12938   1.00
H2       0.99761    1.19247    0.86344   1.00
H2       1.00449    1.23763    0.83647   1.00
C2       0.99736    1.14605    0.99953   1.00
C3       1.02885    1.16597    0.98196   1.00
O2       1.05347    1.14674    0.95657   1.00
C3       0.96823    1.16826    1.01858   1.00
H1       0.94428    1.15385    1.03318   1.00
C3a      1.03002    1.20713    0.98289   1.00
H1       1.05312    1.22202    0.96739   1.00
C3b      0.96882    1.20922    1.01838   1.00
C4       0.99982    1.22900    1.00038   1.00
O3       0.95901    1.27167    0.94190   1.00
C5       1.08879    1.13720    0.97546   1.00
H2       1.10399    1.16391    0.98630   1.00
C5       1.11449    1.11674    0.94546   1.00
H2       1.08353    1.11726    1.00061   1.00
H2       1.12809    1.13932    0.92646   1.00
H2       1.09500    1.09907    0.92637   1.00
C5       1.14604    1.09082    0.96420   1.00
H2       1.16324    1.10824    0.98547   1.00
C5       1.17391    1.07453    0.93296   1.00
H2       1.13286    1.06507    0.97931   1.00
C5       0.95788    1.24017    0.88039   1.00
H2       0.93875    1.26215    0.86599   1.00
H2       0.93836    1.21952    0.89619   1.00
C5       0.98246    1.21800    0.85002   1.00
C5       0.95592    1.20225    0.81738   1.00
H2       1.07910    1.44286    1.17018   1.00
H2       1.03751    1.43447    1.20409   1.00
H2       1.07003    1.39323    1.19027   1.00
H2       0.77817    1.28105    1.02076   1.00
H2       0.79495    1.25551    1.06565   1.00
H2       0.81728    1.30293    1.05144   1.00
H2       1.18350    1.04387    0.94156   1.00
H2       1.15827    1.07344    0.90363   1.00
H2       1.20060    1.09423    0.93055   1.00
H2       0.92407    1.20634    0.82605   1.00
H2       0.96196    1.21884    0.78920   1.00
H2       0.96207    1.16990    0.81273   1.00
C5       0.61782    1.11715    0.95152   1.00
H2       0.60255    1.09776    0.93054   1.00
H2       0.63910    1.13418    0.93397   1.00
C5       0.58806    1.14459    0.97100   1.00
C5       0.57877    1.17955    0.94436   1.00
H2       0.59985    1.15559    0.99919   1.00
O3       0.77000    1.03786    1.05985   1.00
C4       0.72900    0.99962    0.99982   1.00
C3c      0.70757    1.02877    0.98057   1.00
H1       0.72275    1.05178    0.96524   1.00
C3d      0.70865    0.96959    1.01914   1.00
C3       0.66646    1.02908    0.98121   1.00
O2       0.64752    1.05568    0.95784   1.00
C3       0.66773    0.97022    1.02047   1.00
H1       0.65343    0.94735    1.03681   1.00
C2       0.64561    0.99972    1.00152   1.00
C5       0.77121    1.01594    1.09472   1.00
H2       0.80162    1.01137    1.10532   1.00
H2       0.75734    0.98675    1.09070   1.00
C5       0.74871    1.03861    1.12568   1.00
H2       0.71863    1.04413    1.11462   1.00
H2       0.76302    1.06754    1.12971   1.00
C5       0.74738    1.01600    1.16447   1.00
H2       0.77732    1.01014    1.17555   1.00
H2       0.73189    0.98770    1.16078   1.00
C5       0.72555    1.04002    1.19553   1.00
C5       0.73895    0.91037    1.01674   1.00
C5       0.63930    1.08991    0.97937   1.00
H2       0.75912    0.91992    0.99317   1.00
H2       0.71288    0.89640    1.00313   1.00
H2       0.66700    1.10368    0.98953   1.00
H2       0.62105    1.08398    1.00579   1.00
H2       0.55970    1.12938    0.97639   1.00
H2       0.80753    0.86344    1.00239   1.00
H2       0.76237    0.83647    0.99551   1.00
C2       0.85395    0.99953    1.00264   1.00
C3       0.83403    0.98196    0.97115   1.00
O2       0.85326    0.95657    0.94653   1.00
C3       0.83174    1.01858    1.03177   1.00
H1       0.84615    1.03318    1.05572   1.00
C3a      0.79287    0.98289    0.96998   1.00
H1       0.77798    0.96739    0.94688   1.00
C3b      0.79078    1.01838    1.03118   1.00
C4       0.77100    1.00038    1.00018   1.00
O3       0.72833    0.94190    1.04099   1.00
C5       0.86280    0.97546    0.91121   1.00
H2       0.83609    0.98630    0.89601   1.00
C5       0.88326    0.94546    0.88551   1.00
H2       0.88274    1.00061    0.91647   1.00
H2       0.86068    0.92646    0.87191   1.00
H2       0.90093    0.92637    0.90500   1.00
C5       0.90918    0.96420    0.85396   1.00
H2       0.89176    0.98547    0.83676   1.00
C5       0.92547    0.93296    0.82609   1.00
H2       0.93493    0.97931    0.86714   1.00
C5       0.75983    0.88039    1.04212   1.00
H2       0.73785    0.86599    1.06125   1.00
H2       0.78048    0.89619    1.06164   1.00
C5       0.78200    0.85002    1.01754   1.00
C5       0.79775    0.81738    1.04408   1.00
H2       0.55714    1.17018    0.92090   1.00
H2       0.56553    1.20409    0.96249   1.00
H2       0.60677    1.19027    0.92997   1.00
H2       0.71895    1.02076    1.22183   1.00
H2       0.74449    1.06565    1.20505   1.00
H2       0.69707    1.05144    1.18272   1.00
H2       0.95613    0.94156    0.81650   1.00
H2       0.92656    0.90363    0.84173   1.00
H2       0.90577    0.93055    0.79940   1.00
H2       0.79366    0.82605    1.07593   1.00
H2       0.78116    0.78920    1.03804   1.00
H2       0.83010    0.81273    1.03793   1.00
C5       1.38218    1.11715    1.04848   1.00
H2       1.39745    1.09776    1.06946   1.00
H2       1.36090    1.13418    1.06603   1.00
C5       1.41194    1.14459    1.02900   1.00
C5       1.42123    1.17955    1.05564   1.00
H2       1.40015    1.15559    1.00081   1.00
O3       1.23000    1.03786    0.94015   1.00
C4       1.27100    0.99962    1.00018   1.00
C3c      1.29243    1.02877    1.01943   1.00
H1       1.27725    1.05178    1.03476   1.00
C3d      1.29135    0.96959    0.98086   1.00
C3       1.33354    1.02908    1.01879   1.00
O2       1.35248    1.05568    1.04216   1.00
C3       1.33227    0.97022    0.97953   1.00
H1       1.34657    0.94735    0.96319   1.00
C2       1.35439    0.99972    0.99848   1.00
C5       1.22879    1.01594    0.90528   1.00
H2       1.19838    1.01137    0.89468   1.00
H2       1.24266    0.98675    0.90930   1.00
C5       1.25129    1.03861    0.87432   1.00
H2       1.28137    1.04413    0.88538   1.00
H2       1.23698    1.06754    0.87029   1.00
C5       1.25262    1.01600    0.83553   1.00
H2       1.22268    1.01014    0.82445   1.00
H2       1.26811    0.98770    0.83922   1.00
C5       1.27445    1.04002    0.80447   1.00
C5       1.26105    0.91037    0.98326   1.00
C5       1.36070    1.08991    1.02063   1.00
H2       1.24088    0.91992    1.00683   1.00
H2       1.28712    0.89640    0.99687   1.00
H2       1.33300    1.10368    1.01047   1.00
H2       1.37895    1.08398    0.99421   1.00
H2       1.44030    1.12938    1.02361   1.00
H2       1.19247    0.86344    0.99761   1.00
H2       1.23763    0.83647    1.00449   1.00
C2       1.14605    0.99953    0.99736   1.00
C3       1.16597    0.98196    1.02885   1.00
O2       1.14674    0.95657    1.05347   1.00
C3       1.16826    1.01858    0.96823   1.00
H1       1.15385    1.03318    0.94428   1.00
C3a      1.20713    0.98289    1.03002   1.00
H1       1.22202    0.96739    1.05312   1.00
C3b      1.20922    1.01838    0.96882   1.00
C4       1.22900    1.00038    0.99982   1.00
O3       1.27167    0.94190    0.95901   1.00
C5       1.13720    0.97546    1.08879   1.00
H2       1.16391    0.98630    1.10399   1.00
C5       1.11674    0.94546    1.11449   1.00
H2       1.11726    1.00061    1.08353   1.00
H2       1.13932    0.92646    1.12809   1.00
H2       1.09907    0.92637    1.09500   1.00
C5       1.09082    0.96420    1.14604   1.00
H2       1.10824    0.98547    1.16324   1.00
C5       1.07453    0.93296    1.17391   1.00
H2       1.06507    0.97931    1.13286   1.00
C5       1.24017    0.88039    0.95788   1.00
H2       1.26215    0.86599    0.93875   1.00
H2       1.21952    0.89619    0.93836   1.00
C5       1.21800    0.85002    0.98246   1.00
C5       1.20225    0.81738    0.95592   1.00
H2       1.44286    1.17018    1.07910   1.00
H2       1.43447    1.20409    1.03751   1.00
H2       1.39323    1.19027    1.07003   1.00
H2       1.28105    1.02076    0.77817   1.00
H2       1.25551    1.06565    0.79495   1.00
H2       1.30293    1.05144    0.81728   1.00
H2       1.04387    0.94156    1.18350   1.00
H2       1.07344    0.90363    1.15827   1.00
H2       1.09423    0.93055    1.20060   1.00
H2       1.20634    0.82605    0.92407   1.00
H2       1.21884    0.78920    0.96196   1.00
H2       1.16990    0.81273    0.96207   1.00
C5       0.95152    0.61782    1.11715   1.00
H2       0.93054    0.60255    1.09776   1.00
H2       0.93397    0.63910    1.13418   1.00
C5       0.97100    0.58806    1.14459   1.00
C5       0.94436    0.57877    1.17955   1.00
H2       0.99919    0.59985    1.15559   1.00
O3       1.05985    0.77000    1.03786   1.00
C4       0.99982    0.72900    0.99962   1.00
C3c      0.98057    0.70757    1.02877   1.00
H1       0.96524    0.72275    1.05178   1.00
C3d      1.01914    0.70865    0.96959   1.00
C3       0.98121    0.66646    1.02908   1.00
O2       0.95784    0.64752    1.05568   1.00
C3       1.02047    0.66773    0.97022   1.00
H1       1.03681    0.65343    0.94735   1.00
C2       1.00152    0.64561    0.99972   1.00
C5       1.09472    0.77121    1.01594   1.00
H2       1.10532    0.80162    1.01137   1.00
H2       1.09070    0.75734    0.98675   1.00
C5       1.12568    0.74871    1.03861   1.00
H2       1.11462    0.71863    1.04413   1.00
H2       1.12971    0.76302    1.06754   1.00
C5       1.16447    0.74738    1.01600   1.00
H2       1.17555    0.77732    1.01014   1.00
H2       1.16078    0.73189    0.98770   1.00
C5       1.19553    0.72555    1.04002   1.00
C5       1.01674    0.73895    0.91037   1.00
C5       0.97937    0.63930    1.08991   1.00
H2       0.99317    0.75912    0.91992   1.00
H2       1.00313    0.71288    0.89640   1.00
H2       0.98953    0.66700    1.10368   1.00
H2       1.00579    0.62105    1.08398   1.00
H2       0.97639    0.55970    1.12938   1.00
H2       1.00239    0.80753    0.86344   1.00
H2       0.99551    0.76237    0.83647   1.00
C2       1.00264    0.85395    0.99953   1.00
C3       0.97115    0.83403    0.98196   1.00
O2       0.94653    0.85326    0.95657   1.00
C3       1.03177    0.83174    1.01858   1.00
H1       1.05572    0.84615    1.03318   1.00
C3a      0.96998    0.79287    0.98289   1.00
H1       0.94688    0.77798    0.96739   1.00
C3b      1.03118    0.79078    1.01838   1.00
C4       1.00018    0.77100    1.00038   1.00
O3       1.04099    0.72833    0.94190   1.00
C5       0.91121    0.86280    0.97546   1.00
H2       0.89601    0.83609    0.98630   1.00
C5       0.88551    0.88326    0.94546   1.00
H2       0.91647    0.88274    1.00061   1.00
H2       0.87191    0.86068    0.92646   1.00
H2       0.90500    0.90093    0.92637   1.00
C5       0.85396    0.90918    0.96420   1.00
H2       0.83676    0.89176    0.98547   1.00
C5       0.82609    0.92547    0.93296   1.00
H2       0.86714    0.93493    0.97931   1.00
C5       1.04212    0.75983    0.88039   1.00
H2       1.06125    0.73785    0.86599   1.00
H2       1.06164    0.78048    0.89619   1.00
C5       1.01754    0.78200    0.85002   1.00
C5       1.04408    0.79775    0.81738   1.00
H2       0.92090    0.55714    1.17018   1.00
H2       0.96249    0.56553    1.20409   1.00
H2       0.92997    0.60677    1.19027   1.00
H2       1.22183    0.71895    1.02076   1.00
H2       1.20505    0.74449    1.06565   1.00
H2       1.18272    0.69707    1.05144   1.00
H2       0.81650    0.95613    0.94156   1.00
H2       0.84173    0.92656    0.90363   1.00
H2       0.79940    0.90577    0.93055   1.00
H2       1.07593    0.79366    0.82605   1.00
H2       1.03804    0.78116    0.78920   1.00
H2       1.03793    0.83010    0.81273   1.00
C5       1.11715    0.95152    0.61782   1.00
H2       1.09776    0.93054    0.60255   1.00
H2       1.13418    0.93397    0.63910   1.00
C5       1.14459    0.97100    0.58806   1.00
C5       1.17955    0.94436    0.57877   1.00
H2       1.15559    0.99919    0.59985   1.00
O3       1.03786    1.05985    0.77000   1.00
C4       0.99962    0.99982    0.72900   1.00
C3c      1.02877    0.98057    0.70757   1.00
H1       1.05178    0.96524    0.72275   1.00
C3d      0.96959    1.01914    0.70865   1.00
C3       1.02908    0.98121    0.66646   1.00
O2       1.05568    0.95784    0.64752   1.00
C3       0.97022    1.02047    0.66773   1.00
H1       0.94735    1.03681    0.65343   1.00
C2       0.99972    1.00152    0.64561   1.00
C5       1.01594    1.09472    0.77121   1.00
H2       1.01137    1.10532    0.80162   1.00
H2       0.98675    1.09070    0.75734   1.00
C5       1.03861    1.12568    0.74871   1.00
H2       1.04413    1.11462    0.71863   1.00
H2       1.06754    1.12971    0.76302   1.00
C5       1.01600    1.16447    0.74738   1.00
H2       1.01014    1.17555    0.77732   1.00
H2       0.98770    1.16078    0.73189   1.00
C5       1.04002    1.19553    0.72555   1.00
C5       0.91037    1.01674    0.73895   1.00
C5       1.08991    0.97937    0.63930   1.00
H2       0.91992    0.99317    0.75912   1.00
H2       0.89640    1.00313    0.71288   1.00
H2       1.10368    0.98953    0.66700   1.00
H2       1.08398    1.00579    0.62105   1.00
H2       1.12938    0.97639    0.55970   1.00
H2       0.86344    1.00239    0.80753   1.00
H2       0.83647    0.99551    0.76237   1.00
C2       0.99953    1.00264    0.85395   1.00
C3       0.98196    0.97115    0.83403   1.00
O2       0.95657    0.94653    0.85326   1.00
C3       1.01858    1.03177    0.83174   1.00
H1       1.03318    1.05572    0.84615   1.00
C3a      0.98289    0.96998    0.79287   1.00
H1       0.96739    0.94688    0.77798   1.00
C3b      1.01838    1.03118    0.79078   1.00
C4       1.00038    1.00018    0.77100   1.00
O3       0.94190    1.04099    0.72833   1.00
C5       0.97546    0.91121    0.86280   1.00
H2       0.98630    0.89601    0.83609   1.00
C5       0.94546    0.88551    0.88326   1.00
H2       1.00061    0.91647    0.88274   1.00
H2       0.92646    0.87191    0.86068   1.00
H2       0.92637    0.90500    0.90093   1.00
C5       0.96420    0.85396    0.90918   1.00
H2       0.98547    0.83676    0.89176   1.00
C5       0.93296    0.82609    0.92547   1.00
H2       0.97931    0.86714    0.93493   1.00
C5       0.88039    1.04212    0.75983   1.00
H2       0.86599    1.06125    0.73785   1.00
H2       0.89619    1.06164    0.78048   1.00
C5       0.85002    1.01754    0.78200   1.00
C5       0.81738    1.04408    0.79775   1.00
H2       1.17018    0.92090    0.55714   1.00
H2       1.20409    0.96249    0.56553   1.00
H2       1.19027    0.92997    0.60677   1.00
H2       1.02076    1.22183    0.71895   1.00
H2       1.06565    1.20505    0.74449   1.00
H2       1.05144    1.18272    0.69707   1.00
H2       0.94156    0.81650    0.95613   1.00
H2       0.90363    0.84173    0.92656   1.00
H2       0.93055    0.79940    0.90577   1.00
H2       0.82605    1.07593    0.79366   1.00
H2       0.78920    1.03804    0.78116   1.00
H2       0.81273    1.03793    0.83010   1.00
C5       0.61715    0.54848    1.38218   1.00
H2       0.59776    0.56946    1.39745   1.00
H2       0.63418    0.56603    1.36090   1.00
C5       0.64459    0.52900    1.41194   1.00
C5       0.67955    0.55564    1.42123   1.00
H2       0.65559    0.50081    1.40015   1.00
O3       0.53786    0.44015    1.23000   1.00
C4       0.49962    0.50018    1.27100   1.00
C3c      0.52877    0.51943    1.29243   1.00
H1       0.55178    0.53476    1.27725   1.00
C3d      0.46959    0.48086    1.29135   1.00
C3       0.52908    0.51879    1.33354   1.00
O2       0.55568    0.54216    1.35248   1.00
C3       0.47022    0.47953    1.33227   1.00
H1       0.44735    0.46319    1.34657   1.00
C2       0.49972    0.49848    1.35439   1.00
C5       0.51594    0.40528    1.22879   1.00
H2       0.51137    0.39468    1.19838   1.00
H2       0.48675    0.40930    1.24266   1.00
C5       0.53861    0.37432    1.25129   1.00
H2       0.54413    0.38538    1.28137   1.00
H2       0.56754    0.37029    1.23698   1.00
C5       0.51600    0.33553    1.25262   1.00
H2       0.51014    0.32445    1.22268   1.00
H2       0.48770    0.33922    1.26811   1.00
C5       0.54002    0.30447    1.27445   1.00
C5       0.41037    0.48326    1.26105   1.00
C5       0.58991    0.52063    1.36070   1.00
H2       0.41992    0.50683    1.24088   1.00
H2       0.39640    0.49687    1.28712   1.00
H2       0.60368    0.51047    1.33300   1.00
H2       0.58398    0.49421    1.37895   1.00
H2       0.62938    0.52361    1.44030   1.00
H2       0.36344    0.49761    1.19247   1.00
H2       0.33647    0.50449    1.23763   1.00
C2       0.49953    0.49736    1.14605   1.00
C3       0.48196    0.52885    1.16597   1.00
O2       0.45657    0.55347    1.14674   1.00
C3       0.51858    0.46823    1.16826   1.00
H1       0.53318    0.44428    1.15385   1.00
C3a      0.48289    0.53002    1.20713   1.00
H1       0.46739    0.55312    1.22202   1.00
C3b      0.51838    0.46882    1.20922   1.00
C4       0.50038    0.49982    1.22900   1.00
O3       0.44190    0.45901    1.27167   1.00
C5       0.47546    0.58879    1.13720   1.00
H2       0.48630    0.60399    1.16391   1.00
C5       0.44546    0.61449    1.11674   1.00
H2       0.50061    0.58353    1.11726   1.00
H2       0.42646    0.62809    1.13932   1.00
H2       0.42637    0.59500    1.09907   1.00
C5       0.46420    0.64604    1.09082   1.00
H2       0.48547    0.66324    1.10824   1.00
C5       0.43296    0.67391    1.07453   1.00
H2       0.47931    0.63286    1.06507   1.00
C5       0.38039    0.45788    1.24017   1.00
H2       0.36599    0.43875    1.26215   1.00
H2       0.39619    0.43836    1.21952   1.00
C5       0.35002    0.48246    1.21800   1.00
C5       0.31738    0.45592    1.20225   1.00
H2       0.67018    0.57910    1.44286   1.00
H2       0.70409    0.53751    1.43447   1.00
H2       0.69027    0.57003    1.39323   1.00
H2       0.52076    0.27817    1.28105   1.00
H2       0.56565    0.29495    1.25551   1.00
H2       0.55144    0.31728    1.30293   1.00
H2       0.44156    0.68350    1.04387   1.00
H2       0.40363    0.65827    1.07344   1.00
H2       0.43055    0.70060    1.09423   1.00
H2       0.32605    0.42407    1.20634   1.00
H2       0.28920    0.46196    1.21884   1.00
H2       0.31273    0.46207    1.16990   1.00
C5       0.54848    0.88218    1.11715   1.00
H2       0.56946    0.89745    1.09776   1.00
H2       0.56603    0.86090    1.13418   1.00
C5       0.52900    0.91194    1.14459   1.00
C5       0.55564    0.92123    1.17955   1.00
H2       0.50081    0.90015    1.15559   1.00
O3       0.44015    0.73000    1.03786   1.00
C4       0.50018    0.77100    0.99962   1.00
C3c      0.51943    0.79243    1.02877   1.00
H1       0.53476    0.77725    1.05178   1.00
C3d      0.48086    0.79135    0.96959   1.00
C3       0.51879    0.83354    1.02908   1.00
O2       0.54216    0.85248    1.05568   1.00
C3       0.47953    0.83227    0.97022   1.00
H1       0.46319    0.84657    0.94735   1.00
C2       0.49848    0.85439    0.99972   1.00
C5       0.40528    0.72879    1.01594   1.00
H2       0.39468    0.69838    1.01137   1.00
H2       0.40930    0.74266    0.98675   1.00
C5       0.37432    0.75129    1.03861   1.00
H2       0.38538    0.78137    1.04413   1.00
H2       0.37029    0.73698    1.06754   1.00
C5       0.33553    0.75262    1.01600   1.00
H2       0.32445    0.72268    1.01014   1.00
H2       0.33922    0.76811    0.98770   1.00
C5       0.30447    0.77445    1.04002   1.00
C5       0.48326    0.76105    0.91037   1.00
C5       0.52063    0.86070    1.08991   1.00
H2       0.50683    0.74088    0.91992   1.00
H2       0.49687    0.78712    0.89640   1.00
H2       0.51047    0.83300    1.10368   1.00
H2       0.49421    0.87895    1.08398   1.00
H2       0.52361    0.94030    1.12938   1.00
H2       0.49761    0.69247    0.86344   1.00
H2       0.50449    0.73763    0.83647   1.00
C2       0.49736    0.64605    0.99953   1.00
C3       0.52885    0.66597    0.98196   1.00
O2       0.55347    0.64674    0.95657   1.00
C3       0.46823    0.66826    1.01858   1.00
H1       0.44428    0.65385    1.03318   1.00
C3a      0.53002    0.70713    0.98289   1.00
H1       0.55312    0.72202    0.96739   1.00
C3b      0.46882    0.70922    1.01838   1.00
C4       0.49982    0.72900    1.00038   1.00
O3       0.45901    0.77167    0.94190   1.00
C5       0.58879    0.63720    0.97546   1.00
H2       0.60399    0.66391    0.98630   1.00
C5       0.61449    0.61674    0.94546   1.00
H2       0.58353    0.61726    1.00061   1.00
H2       0.62809    0.63932    0.92646   1.00
H2       0.59500    0.59907    0.92637   1.00
C5       0.64604    0.59082    0.96420   1.00
H2       0.66324    0.60824    0.98547   1.00
C5       0.67391    0.57453    0.93296   1.00
H2       0.63286    0.56507    0.97931   1.00
C5       0.45788    0.74017    0.88039   1.00
H2       0.43875    0.76215    0.86599   1.00
H2       0.43836    0.71952    0.89619   1.00
C5       0.48246    0.71800    0.85002   1.00
C5       0.45592    0.70225    0.81738   1.00
H2       0.57910    0.94286    1.17018   1.00
H2       0.53751    0.93447    1.20409   1.00
H2       0.57003    0.89323    1.19027   1.00
H2       0.27817    0.78105    1.02076   1.00
H2       0.29495    0.75551    1.06565   1.00
H2       0.31728    0.80293    1.05144   1.00
H2       0.68350    0.54387    0.94156   1.00
H2       0.65827    0.57344    0.90363   1.00
H2       0.70060    0.59423    0.93055   1.00
H2       0.42407    0.70634    0.82605   1.00
H2       0.46196    0.71884    0.78920   1.00
H2       0.46207    0.66990    0.81273   1.00
C5       0.11782    0.61715    0.95152   1.00
H2       0.10255    0.59776    0.93054   1.00
H2       0.13910    0.63418    0.93397   1.00
C5       0.08806    0.64459    0.97100   1.00
C5       0.07877    0.67955    0.94436   1.00
H2       0.09985    0.65559    0.99919   1.00
O3       0.27000    0.53786    1.05985   1.00
C4       0.22900    0.49962    0.99982   1.00
C3c      0.20757    0.52877    0.98057   1.00
H1       0.22275    0.55178    0.96524   1.00
C3d      0.20865    0.46959    1.01914   1.00
C3       0.16646    0.52908    0.98121   1.00
O2       0.14752    0.55568    0.95784   1.00
C3       0.16773    0.47022    1.02047   1.00
H1       0.15343    0.44735    1.03681   1.00
C2       0.14561    0.49972    1.00152   1.00
C5       0.27121    0.51594    1.09472   1.00
H2       0.30162    0.51137    1.10532   1.00
H2       0.25734    0.48675    1.09070   1.00
C5       0.24871    0.53861    1.12568   1.00
H2       0.21863    0.54413    1.11462   1.00
H2       0.26302    0.56754    1.12971   1.00
C5       0.24738    0.51600    1.16447   1.00
H2       0.27732    0.51014    1.17555   1.00
H2       0.23189    0.48770    1.16078   1.00
C5       0.22555    0.54002    1.19553   1.00
C5       0.23895    0.41037    1.01674   1.00
C5       0.13930    0.58991    0.97937   1.00
H2       0.25912    0.41992    0.99317   1.00
H2       0.21288    0.39640    1.00313   1.00
H2       0.16700    0.60368    0.98953   1.00
H2       0.12105    0.58398    1.00579   1.00
H2       0.05970    0.62938    0.97639   1.00
H2       0.30753    0.36344    1.00239   1.00
H2       0.26237    0.33647    0.99551   1.00
C2       0.35395    0.49953    1.00264   1.00
C3       0.33403    0.48196    0.97115   1.00
O2       0.35326    0.45657    0.94653   1.00
C3       0.33174    0.51858    1.03177   1.00
H1       0.34615    0.53318    1.05572   1.00
C3a      0.29287    0.48289    0.96998   1.00
H1       0.27798    0.46739    0.94688   1.00
C3b      0.29078    0.51838    1.03118   1.00
C4       0.27100    0.50038    1.00018   1.00
O3       0.22833    0.44190    1.04099   1.00
C5       0.36280    0.47546    0.91121   1.00
H2       0.33609    0.48630    0.89601   1.00
C5       0.38326    0.44546    0.88551   1.00
H2       0.38274    0.50061    0.91647   1.00
H2       0.36068    0.42646    0.87191   1.00
H2       0.40093    0.42637    0.90500   1.00
C5       0.40918    0.46420    0.85396   1.00
H2       0.39176    0.48547    0.83676   1.00
C5       0.42547    0.43296    0.82609   1.00
H2       0.43493    0.47931    0.86714   1.00
C5       0.25983    0.38039    1.04212   1.00
H2       0.23785    0.36599    1.06125   1.00
H2       0.28048    0.39619    1.06164   1.00
C5       0.28200    0.35002    1.01754   1.00
C5       0.29775    0.31738    1.04408   1.00
H2       0.05714    0.67018    0.92090   1.00
H2       0.06553    0.70409    0.96249   1.00
H2       0.10677    0.69027    0.92997   1.00
H2       0.21895    0.52076    1.22183   1.00
H2       0.24449    0.56565    1.20505   1.00
H2       0.19707    0.55144    1.18272   1.00
H2       0.45613    0.44156    0.81650   1.00
H2       0.42656    0.40363    0.84173   1.00
H2       0.40577    0.43055    0.79940   1.00
H2       0.29366    0.32605    1.07593   1.00
H2       0.28116    0.28920    1.03804   1.00
H2       0.33010    0.31273    1.03793   1.00
C5       0.88218    0.61715    1.04848   1.00
H2       0.89745    0.59776    1.06946   1.00
H2       0.86090    0.63418    1.06603   1.00
C5       0.91194    0.64459    1.02900   1.00
C5       0.92123    0.67955    1.05564   1.00
H2       0.90015    0.65559    1.00081   1.00
O3       0.73000    0.53786    0.94015   1.00
C4       0.77100    0.49962    1.00018   1.00
C3c      0.79243    0.52877    1.01943   1.00
H1       0.77725    0.55178    1.03476   1.00
C3d      0.79135    0.46959    0.98086   1.00
C3       0.83354    0.52908    1.01879   1.00
O2       0.85248    0.55568    1.04216   1.00
C3       0.83227    0.47022    0.97953   1.00
H1       0.84657    0.44735    0.96319   1.00
C2       0.85439    0.49972    0.99848   1.00
C5       0.72879    0.51594    0.90528   1.00
H2       0.69838    0.51137    0.89468   1.00
H2       0.74266    0.48675    0.90930   1.00
C5       0.75129    0.53861    0.87432   1.00
H2       0.78137    0.54413    0.88538   1.00
H2       0.73698    0.56754    0.87029   1.00
C5       0.75262    0.51600    0.83553   1.00
H2       0.72268    0.51014    0.82445   1.00
H2       0.76811    0.48770    0.83922   1.00
C5       0.77445    0.54002    0.80447   1.00
C5       0.76105    0.41037    0.98326   1.00
C5       0.86070    0.58991    1.02063   1.00
H2       0.74088    0.41992    1.00683   1.00
H2       0.78712    0.39640    0.99687   1.00
H2       0.83300    0.60368    1.01047   1.00
H2       0.87895    0.58398    0.99421   1.00
H2       0.94030    0.62938    1.02361   1.00
H2       0.69247    0.36344    0.99761   1.00
H2       0.73763    0.33647    1.00449   1.00
C2       0.64605    0.49953    0.99736   1.00
C3       0.66597    0.48196    1.02885   1.00
O2       0.64674    0.45657    1.05347   1.00
C3       0.66826    0.51858    0.96823   1.00
H1       0.65385    0.53318    0.94428   1.00
C3a      0.70713    0.48289    1.03002   1.00
H1       0.72202    0.46739    1.05312   1.00
C3b      0.70922    0.51838    0.96882   1.00
C4       0.72900    0.50038    0.99982   1.00
O3       0.77167    0.44190    0.95901   1.00
C5       0.63720    0.47546    1.08879   1.00
H2       0.66391    0.48630    1.10399   1.00
C5       0.61674    0.44546    1.11449   1.00
H2       0.61726    0.50061    1.08353   1.00
H2       0.63932    0.42646    1.12809   1.00
H2       0.59907    0.42637    1.09500   1.00
C5       0.59082    0.46420    1.14604   1.00
H2       0.60824    0.48547    1.16324   1.00
C5       0.57453    0.43296    1.17391   1.00
H2       0.56507    0.47931    1.13286   1.00
C5       0.74017    0.38039    0.95788   1.00
H2       0.76215    0.36599    0.93875   1.00
H2       0.71952    0.39619    0.93836   1.00
C5       0.71800    0.35002    0.98246   1.00
C5       0.70225    0.31738    0.95592   1.00
H2       0.94286    0.67018    1.07910   1.00
H2       0.93447    0.70409    1.03751   1.00
H2       0.89323    0.69027    1.07003   1.00
H2       0.78105    0.52076    0.77817   1.00
H2       0.75551    0.56565    0.79495   1.00
H2       0.80293    0.55144    0.81728   1.00
H2       0.54387    0.44156    1.18350   1.00
H2       0.57344    0.40363    1.15827   1.00
H2       0.59423    0.43055    1.20060   1.00
H2       0.70634    0.32605    0.92407   1.00
H2       0.71884    0.28920    0.96196   1.00
H2       0.66990    0.31273    0.96207   1.00
C5       0.45152    0.11782    1.11715   1.00
H2       0.43054    0.10255    1.09776   1.00
H2       0.43397    0.13910    1.13418   1.00
C5       0.47100    0.08806    1.14459   1.00
C5       0.44436    0.07877    1.17955   1.00
H2       0.49919    0.09985    1.15559   1.00
O3       0.55985    0.27000    1.03786   1.00
C4       0.49982    0.22900    0.99962   1.00
C3c      0.48057    0.20757    1.02877   1.00
H1       0.46524    0.22275    1.05178   1.00
C3d      0.51914    0.20865    0.96959   1.00
C3       0.48121    0.16646    1.02908   1.00
O2       0.45784    0.14752    1.05568   1.00
C3       0.52047    0.16773    0.97022   1.00
H1       0.53681    0.15343    0.94735   1.00
C2       0.50152    0.14561    0.99972   1.00
C5       0.59472    0.27121    1.01594   1.00
H2       0.60532    0.30162    1.01137   1.00
H2       0.59070    0.25734    0.98675   1.00
C5       0.62568    0.24871    1.03861   1.00
H2       0.61462    0.21863    1.04413   1.00
H2       0.62971    0.26302    1.06754   1.00
C5       0.66447    0.24738    1.01600   1.00
H2       0.67555    0.27732    1.01014   1.00
H2       0.66078    0.23189    0.98770   1.00
C5       0.69553    0.22555    1.04002   1.00
C5       0.51674    0.23895    0.91037   1.00
C5       0.47937    0.13930    1.08991   1.00
H2       0.49317    0.25912    0.91992   1.00
H2       0.50313    0.21288    0.89640   1.00
H2       0.48953    0.16700    1.10368   1.00
H2       0.50579    0.12105    1.08398   1.00
H2       0.47639    0.05970    1.12938   1.00
H2       0.50239    0.30753    0.86344   1.00
H2       0.49551    0.26237    0.83647   1.00
C2       0.50264    0.35395    0.99953   1.00
C3       0.47115    0.33403    0.98196   1.00
O2       0.44653    0.35326    0.95657   1.00
C3       0.53177    0.33174    1.01858   1.00
H1       0.55572    0.34615    1.03318   1.00
C3a      0.46998    0.29287    0.98289   1.00
H1       0.44688    0.27798    0.96739   1.00
C3b      0.53118    0.29078    1.01838   1.00
C4       0.50018    0.27100    1.00038   1.00
O3       0.54099    0.22833    0.94190   1.00
C5       0.41121    0.36280    0.97546   1.00
H2       0.39601    0.33609    0.98630   1.00
C5       0.38551    0.38326    0.94546   1.00
H2       0.41647    0.38274    1.00061   1.00
H2       0.37191    0.36068    0.92646   1.00
H2       0.40500    0.40093    0.92637   1.00
C5       0.35396    0.40918    0.96420   1.00
H2       0.33676    0.39176    0.98547   1.00
C5       0.32609    0.42547    0.93296   1.00
H2       0.36714    0.43493    0.97931   1.00
C5       0.54212    0.25983    0.88039   1.00
H2       0.56125    0.23785    0.86599   1.00
H2       0.56164    0.28048    0.89619   1.00
C5       0.51754    0.28200    0.85002   1.00
C5       0.54408    0.29775    0.81738   1.00
H2       0.42090    0.05714    1.17018   1.00
H2       0.46249    0.06553    1.20409   1.00
H2       0.42997    0.10677    1.19027   1.00
H2       0.72183    0.21895    1.02076   1.00
H2       0.70505    0.24449    1.06565   1.00
H2       0.68272    0.19707    1.05144   1.00
H2       0.31650    0.45613    0.94156   1.00
H2       0.34173    0.42656    0.90363   1.00
H2       0.29940    0.40577    0.93055   1.00
H2       0.57593    0.29366    0.82605   1.00
H2       0.53804    0.28116    0.78920   1.00
H2       0.53793    0.33010    0.81273   1.00
C5       0.61715    0.45152    0.61782   1.00
H2       0.59776    0.43054    0.60255   1.00
H2       0.63418    0.43397    0.63910   1.00
C5       0.64459    0.47100    0.58806   1.00
C5       0.67955    0.44436    0.57877   1.00
H2       0.65559    0.49919    0.59985   1.00
O3       0.53786    0.55985    0.77000   1.00
C4       0.49962    0.49982    0.72900   1.00
C3c      0.52877    0.48057    0.70757   1.00
H1       0.55178    0.46524    0.72275   1.00
C3d      0.46959    0.51914    0.70865   1.00
C3       0.52908    0.48121    0.66646   1.00
O2       0.55568    0.45784    0.64752   1.00
C3       0.47022    0.52047    0.66773   1.00
H1       0.44735    0.53681    0.65343   1.00
C2       0.49972    0.50152    0.64561   1.00
C5       0.51594    0.59472    0.77121   1.00
H2       0.51137    0.60532    0.80162   1.00
H2       0.48675    0.59070    0.75734   1.00
C5       0.53861    0.62568    0.74871   1.00
H2       0.54413    0.61462    0.71863   1.00
H2       0.56754    0.62971    0.76302   1.00
C5       0.51600    0.66447    0.74738   1.00
H2       0.51014    0.67555    0.77732   1.00
H2       0.48770    0.66078    0.73189   1.00
C5       0.54002    0.69553    0.72555   1.00
C5       0.41037    0.51674    0.73895   1.00
C5       0.58991    0.47937    0.63930   1.00
H2       0.41992    0.49317    0.75912   1.00
H2       0.39640    0.50313    0.71288   1.00
H2       0.60368    0.48953    0.66700   1.00
H2       0.58398    0.50579    0.62105   1.00
H2       0.62938    0.47639    0.55970   1.00
H2       0.36344    0.50239    0.80753   1.00
H2       0.33647    0.49551    0.76237   1.00
C2       0.49953    0.50264    0.85395   1.00
C3       0.48196    0.47115    0.83403   1.00
O2       0.45657    0.44653    0.85326   1.00
C3       0.51858    0.53177    0.83174   1.00
H1       0.53318    0.55572    0.84615   1.00
C3a      0.48289    0.46998    0.79287   1.00
H1       0.46739    0.44688    0.77798   1.00
C3b      0.51838    0.53118    0.79078   1.00
C4       0.50038    0.50018    0.77100   1.00
O3       0.44190    0.54099    0.72833   1.00
C5       0.47546    0.41121    0.86280   1.00
H2       0.48630    0.39601    0.83609   1.00
C5       0.44546    0.38551    0.88326   1.00
H2       0.50061    0.41647    0.88274   1.00
H2       0.42646    0.37191    0.86068   1.00
H2       0.42637    0.40500    0.90093   1.00
C5       0.46420    0.35396    0.90918   1.00
H2       0.48547    0.33676    0.89176   1.00
C5       0.43296    0.32609    0.92547   1.00
H2       0.47931    0.36714    0.93493   1.00
C5       0.38039    0.54212    0.75983   1.00
H2       0.36599    0.56125    0.73785   1.00
H2       0.39619    0.56164    0.78048   1.00
C5       0.35002    0.51754    0.78200   1.00
C5       0.31738    0.54408    0.79775   1.00
H2       0.67018    0.42090    0.55714   1.00
H2       0.70409    0.46249    0.56553   1.00
H2       0.69027    0.42997    0.60677   1.00
H2       0.52076    0.72183    0.71895   1.00
H2       0.56565    0.70505    0.74449   1.00
H2       0.55144    0.68272    0.69707   1.00
H2       0.44156    0.31650    0.95613   1.00
H2       0.40363    0.34173    0.92656   1.00
H2       0.43055    0.29940    0.90577   1.00
H2       0.32605    0.57593    0.79366   1.00
H2       0.28920    0.53804    0.78116   1.00
H2       0.31273    0.53793    0.83010   1.00
C5       0.61715    1.04848    0.88218   1.00
H2       0.59776    1.06946    0.89745   1.00
H2       0.63418    1.06603    0.86090   1.00
C5       0.64459    1.02900    0.91194   1.00
C5       0.67955    1.05564    0.92123   1.00
H2       0.65559    1.00081    0.90015   1.00
O3       0.53786    0.94015    0.73000   1.00
C4       0.49962    1.00018    0.77100   1.00
C3c      0.52877    1.01943    0.79243   1.00
H1       0.55178    1.03476    0.77725   1.00
C3d      0.46959    0.98086    0.79135   1.00
C3       0.52908    1.01879    0.83354   1.00
O2       0.55568    1.04216    0.85248   1.00
C3       0.47022    0.97953    0.83227   1.00
H1       0.44735    0.96319    0.84657   1.00
C2       0.49972    0.99848    0.85439   1.00
C5       0.51594    0.90528    0.72879   1.00
H2       0.51137    0.89468    0.69838   1.00
H2       0.48675    0.90930    0.74266   1.00
C5       0.53861    0.87432    0.75129   1.00
H2       0.54413    0.88538    0.78137   1.00
H2       0.56754    0.87029    0.73698   1.00
C5       0.51600    0.83553    0.75262   1.00
H2       0.51014    0.82445    0.72268   1.00
H2       0.48770    0.83922    0.76811   1.00
C5       0.54002    0.80447    0.77445   1.00
C5       0.41037    0.98326    0.76105   1.00
C5       0.58991    1.02063    0.86070   1.00
H2       0.41992    1.00683    0.74088   1.00
H2       0.39640    0.99687    0.78712   1.00
H2       0.60368    1.01047    0.83300   1.00
H2       0.58398    0.99421    0.87895   1.00
H2       0.62938    1.02361    0.94030   1.00
H2       0.36344    0.99761    0.69247   1.00
H2       0.33647    1.00449    0.73763   1.00
C2       0.49953    0.99736    0.64605   1.00
C3       0.48196    1.02885    0.66597   1.00
O2       0.45657    1.05347    0.64674   1.00
C3       0.51858    0.96823    0.66826   1.00
H1       0.53318    0.94428    0.65385   1.00
C3a      0.48289    1.03002    0.70713   1.00
H1       0.46739    1.05312    0.72202   1.00
C3b      0.51838    0.96882    0.70922   1.00
C4       0.50038    0.99982    0.72900   1.00
O3       0.44190    0.95901    0.77167   1.00
C5       0.47546    1.08879    0.63720   1.00
H2       0.48630    1.10399    0.66391   1.00
C5       0.44546    1.11449    0.61674   1.00
H2       0.50061    1.08353    0.61726   1.00
H2       0.42646    1.12809    0.63932   1.00
H2       0.42637    1.09500    0.59907   1.00
C5       0.46420    1.14604    0.59082   1.00
H2       0.48547    1.16324    0.60824   1.00
C5       0.43296    1.17391    0.57453   1.00
H2       0.47931    1.13286    0.56507   1.00
C5       0.38039    0.95788    0.74017   1.00
H2       0.36599    0.93875    0.76215   1.00
H2       0.39619    0.93836    0.71952   1.00
C5       0.35002    0.98246    0.71800   1.00
C5       0.31738    0.95592    0.70225   1.00
H2       0.67018    1.07910    0.94286   1.00
H2       0.70409    1.03751    0.93447   1.00
H2       0.69027    1.07003    0.89323   1.00
H2       0.52076    0.77817    0.78105   1.00
H2       0.56565    0.79495    0.75551   1.00
H2       0.55144    0.81728    0.80293   1.00
H2       0.44156    1.18350    0.54387   1.00
H2       0.40363    1.15827    0.57344   1.00
H2       0.43055    1.20060    0.59423   1.00
H2       0.32605    0.92407    0.70634   1.00
H2       0.28920    0.96196    0.71884   1.00
H2       0.31273    0.96207    0.66990   1.00
C5       0.54848    1.38218    0.61715   1.00
H2       0.56946    1.39745    0.59776   1.00
H2       0.56603    1.36090    0.63418   1.00
C5       0.52900    1.41194    0.64459   1.00
C5       0.55564    1.42123    0.67955   1.00
H2       0.50081    1.40015    0.65559   1.00
O3       0.44015    1.23000    0.53786   1.00
C4       0.50018    1.27100    0.49962   1.00
C3c      0.51943    1.29243    0.52877   1.00
H1       0.53476    1.27725    0.55178   1.00
C3d      0.48086    1.29135    0.46959   1.00
C3       0.51879    1.33354    0.52908   1.00
O2       0.54216    1.35248    0.55568   1.00
C3       0.47953    1.33227    0.47022   1.00
H1       0.46319    1.34657    0.44735   1.00
C2       0.49848    1.35439    0.49972   1.00
C5       0.40528    1.22879    0.51594   1.00
H2       0.39468    1.19838    0.51137   1.00
H2       0.40930    1.24266    0.48675   1.00
C5       0.37432    1.25129    0.53861   1.00
H2       0.38538    1.28137    0.54413   1.00
H2       0.37029    1.23698    0.56754   1.00
C5       0.33553    1.25262    0.51600   1.00
H2       0.32445    1.22268    0.51014   1.00
H2       0.33922    1.26811    0.48770   1.00
C5       0.30447    1.27445    0.54002   1.00
C5       0.48326    1.26105    0.41037   1.00
C5       0.52063    1.36070    0.58991   1.00
H2       0.50683    1.24088    0.41992   1.00
H2       0.49687    1.28712    0.39640   1.00
H2       0.51047    1.33300    0.60368   1.00
H2       0.49421    1.37895    0.58398   1.00
H2       0.52361    1.44030    0.62938   1.00
H2       0.49761    1.19247    0.36344   1.00
H2       0.50449    1.23763    0.33647   1.00
C2       0.49736    1.14605    0.49953   1.00
C3       0.52885    1.16597    0.48196   1.00
O2       0.55347    1.14674    0.45657   1.00
C3       0.46823    1.16826    0.51858   1.00
H1       0.44428    1.15385    0.53318   1.00
C3a      0.53002    1.20713    0.48289   1.00
H1       0.55312    1.22202    0.46739   1.00
C3b      0.46882    1.20922    0.51838   1.00
C4       0.49982    1.22900    0.50038   1.00
O3       0.45901    1.27167    0.44190   1.00
C5       0.58879    1.13720    0.47546   1.00
H2       0.60399    1.16391    0.48630   1.00
C5       0.61449    1.11674    0.44546   1.00
H2       0.58353    1.11726    0.50061   1.00
H2       0.62809    1.13932    0.42646   1.00
H2       0.59500    1.09907    0.42637   1.00
C5       0.64604    1.09082    0.46420   1.00
H2       0.66324    1.10824    0.48547   1.00
C5       0.67391    1.07453    0.43296   1.00
H2       0.63286    1.06507    0.47931   1.00
C5       0.45788    1.24017    0.38039   1.00
H2       0.43875    1.26215    0.36599   1.00
H2       0.43836    1.21952    0.39619   1.00
C5       0.48246    1.21800    0.35002   1.00
C5       0.45592    1.20225    0.31738   1.00
H2       0.57910    1.44286    0.67018   1.00
H2       0.53751    1.43447    0.70409   1.00
H2       0.57003    1.39323    0.69027   1.00
H2       0.27817    1.28105    0.52076   1.00
H2       0.29495    1.25551    0.56565   1.00
H2       0.31728    1.30293    0.55144   1.00
H2       0.68350    1.04387    0.44156   1.00
H2       0.65827    1.07344    0.40363   1.00
H2       0.70060    1.09423    0.43055   1.00
H2       0.42407    1.20634    0.32605   1.00
H2       0.46196    1.21884    0.28920   1.00
H2       0.46207    1.16990    0.31273   1.00
C5       0.11782    1.11715    0.45152   1.00
H2       0.10255    1.09776    0.43054   1.00
H2       0.13910    1.13418    0.43397   1.00
C5       0.08806    1.14459    0.47100   1.00
C5       0.07877    1.17955    0.44436   1.00
H2       0.09985    1.15559    0.49919   1.00
O3       0.27000    1.03786    0.55985   1.00
C4       0.22900    0.99962    0.49982   1.00
C3c      0.20757    1.02877    0.48057   1.00
H1       0.22275    1.05178    0.46524   1.00
C3d      0.20865    0.96959    0.51914   1.00
C3       0.16646    1.02908    0.48121   1.00
O2       0.14752    1.05568    0.45784   1.00
C3       0.16773    0.97022    0.52047   1.00
H1       0.15343    0.94735    0.53681   1.00
C2       0.14561    0.99972    0.50152   1.00
C5       0.27121    1.01594    0.59472   1.00
H2       0.30162    1.01137    0.60532   1.00
H2       0.25734    0.98675    0.59070   1.00
C5       0.24871    1.03861    0.62568   1.00
H2       0.21863    1.04413    0.61462   1.00
H2       0.26302    1.06754    0.62971   1.00
C5       0.24738    1.01600    0.66447   1.00
H2       0.27732    1.01014    0.67555   1.00
H2       0.23189    0.98770    0.66078   1.00
C5       0.22555    1.04002    0.69553   1.00
C5       0.23895    0.91037    0.51674   1.00
C5       0.13930    1.08991    0.47937   1.00
H2       0.25912    0.91992    0.49317   1.00
H2       0.21288    0.89640    0.50313   1.00
H2       0.16700    1.10368    0.48953   1.00
H2       0.12105    1.08398    0.50579   1.00
H2       0.05970    1.12938    0.47639   1.00
H2       0.30753    0.86344    0.50239   1.00
H2       0.26237    0.83647    0.49551   1.00
C2       0.35395    0.99953    0.50264   1.00
C3       0.33403    0.98196    0.47115   1.00
O2       0.35326    0.95657    0.44653   1.00
C3       0.33174    1.01858    0.53177   1.00
H1       0.34615    1.03318    0.55572   1.00
C3a      0.29287    0.98289    0.46998   1.00
H1       0.27798    0.96739    0.44688   1.00
C3b      0.29078    1.01838    0.53118   1.00
C4       0.27100    1.00038    0.50018   1.00
O3       0.22833    0.94190    0.54099   1.00
C5       0.36280    0.97546    0.41121   1.00
H2       0.33609    0.98630    0.39601   1.00
C5       0.38326    0.94546    0.38551   1.00
H2       0.38274    1.00061    0.41647   1.00
H2       0.36068    0.92646    0.37191   1.00
H2       0.40093    0.92637    0.40500   1.00
C5       0.40918    0.96420    0.35396   1.00
H2       0.39176    0.98547    0.33676   1.00
C5       0.42547    0.93296    0.32609   1.00
H2       0.43493    0.97931    0.36714   1.00
C5       0.25983    0.88039    0.54212   1.00
H2       0.23785    0.86599    0.56125   1.00
H2       0.28048    0.89619    0.56164   1.00
C5       0.28200    0.85002    0.51754   1.00
C5       0.29775    0.81738    0.54408   1.00
H2       0.05714    1.17018    0.42090   1.00
H2       0.06553    1.20409    0.46249   1.00
H2       0.10677    1.19027    0.42997   1.00
H2       0.21895    1.02076    0.72183   1.00
H2       0.24449    1.06565    0.70505   1.00
H2       0.19707    1.05144    0.68272   1.00
H2       0.45613    0.94156    0.31650   1.00
H2       0.42656    0.90363    0.34173   1.00
H2       0.40577    0.93055    0.29940   1.00
H2       0.29366    0.82605    0.57593   1.00
H2       0.28116    0.78920    0.53804   1.00
H2       0.33010    0.81273    0.53793   1.00
C5       0.88218    1.11715    0.54848   1.00
H2       0.89745    1.09776    0.56946   1.00
H2       0.86090    1.13418    0.56603   1.00
C5       0.91194    1.14459    0.52900   1.00
C5       0.92123    1.17955    0.55564   1.00
H2       0.90015    1.15559    0.50081   1.00
O3       0.73000    1.03786    0.44015   1.00
C4       0.77100    0.99962    0.50018   1.00
C3c      0.79243    1.02877    0.51943   1.00
H1       0.77725    1.05178    0.53476   1.00
C3d      0.79135    0.96959    0.48086   1.00
C3       0.83354    1.02908    0.51879   1.00
O2       0.85248    1.05568    0.54216   1.00
C3       0.83227    0.97022    0.47953   1.00
H1       0.84657    0.94735    0.46319   1.00
C2       0.85439    0.99972    0.49848   1.00
C5       0.72879    1.01594    0.40528   1.00
H2       0.69838    1.01137    0.39468   1.00
H2       0.74266    0.98675    0.40930   1.00
C5       0.75129    1.03861    0.37432   1.00
H2       0.78137    1.04413    0.38538   1.00
H2       0.73698    1.06754    0.37029   1.00
C5       0.75262    1.01600    0.33553   1.00
H2       0.72268    1.01014    0.32445   1.00
H2       0.76811    0.98770    0.33922   1.00
C5       0.77445    1.04002    0.30447   1.00
C5       0.76105    0.91037    0.48326   1.00
C5       0.86070    1.08991    0.52063   1.00
H2       0.74088    0.91992    0.50683   1.00
H2       0.78712    0.89640    0.49687   1.00
H2       0.83300    1.10368    0.51047   1.00
H2       0.87895    1.08398    0.49421   1.00
H2       0.94030    1.12938    0.52361   1.00
H2       0.69247    0.86344    0.49761   1.00
H2       0.73763    0.83647    0.50449   1.00
C2       0.64605    0.99953    0.49736   1.00
C3       0.66597    0.98196    0.52885   1.00
O2       0.64674    0.95657    0.55347   1.00
C3       0.66826    1.01858    0.46823   1.00
H1       0.65385    1.03318    0.44428   1.00
C3a      0.70713    0.98289    0.53002   1.00
H1       0.72202    0.96739    0.55312   1.00
C3b      0.70922    1.01838    0.46882   1.00
C4       0.72900    1.00038    0.49982   1.00
O3       0.77167    0.94190    0.45901   1.00
C5       0.63720    0.97546    0.58879   1.00
H2       0.66391    0.98630    0.60399   1.00
C5       0.61674    0.94546    0.61449   1.00
H2       0.61726    1.00061    0.58353   1.00
H2       0.63932    0.92646    0.62809   1.00
H2       0.59907    0.92637    0.59500   1.00
C5       0.59082    0.96420    0.64604   1.00
H2       0.60824    0.98547    0.66324   1.00
C5       0.57453    0.93296    0.67391   1.00
H2       0.56507    0.97931    0.63286   1.00
C5       0.74017    0.88039    0.45788   1.00
H2       0.76215    0.86599    0.43875   1.00
H2       0.71952    0.89619    0.43836   1.00
C5       0.71800    0.85002    0.48246   1.00
C5       0.70225    0.81738    0.45592   1.00
H2       0.94286    1.17018    0.57910   1.00
H2       0.93447    1.20409    0.53751   1.00
H2       0.89323    1.19027    0.57003   1.00
H2       0.78105    1.02076    0.27817   1.00
H2       0.75551    1.06565    0.29495   1.00
H2       0.80293    1.05144    0.31728   1.00
H2       0.54387    0.94156    0.68350   1.00
H2       0.57344    0.90363    0.65827   1.00
H2       0.59423    0.93055    0.70060   1.00
H2       0.70634    0.82605    0.42407   1.00
H2       0.71884    0.78920    0.46196   1.00
H2       0.66990    0.81273    0.46207   1.00
C5       0.45152    0.61782    0.61715   1.00
H2       0.43054    0.60255    0.59776   1.00
H2       0.43397    0.63910    0.63418   1.00
C5       0.47100    0.58806    0.64459   1.00
C5       0.44436    0.57877    0.67955   1.00
H2       0.49919    0.59985    0.65559   1.00
O3       0.55985    0.77000    0.53786   1.00
C4       0.49982    0.72900    0.49962   1.00
C3c      0.48057    0.70757    0.52877   1.00
H1       0.46524    0.72275    0.55178   1.00
C3d      0.51914    0.70865    0.46959   1.00
C3       0.48121    0.66646    0.52908   1.00
O2       0.45784    0.64752    0.55568   1.00
C3       0.52047    0.66773    0.47022   1.00
H1       0.53681    0.65343    0.44735   1.00
C2       0.50152    0.64561    0.49972   1.00
C5       0.59472    0.77121    0.51594   1.00
H2       0.60532    0.80162    0.51137   1.00
H2       0.59070    0.75734    0.48675   1.00
C5       0.62568    0.74871    0.53861   1.00
H2       0.61462    0.71863    0.54413   1.00
H2       0.62971    0.76302    0.56754   1.00
C5       0.66447    0.74738    0.51600   1.00
H2       0.67555    0.77732    0.51014   1.00
H2       0.66078    0.73189    0.48770   1.00
C5       0.69553    0.72555    0.54002   1.00
C5       0.51674    0.73895    0.41037   1.00
C5       0.47937    0.63930    0.58991   1.00
H2       0.49317    0.75912    0.41992   1.00
H2       0.50313    0.71288    0.39640   1.00
H2       0.48953    0.66700    0.60368   1.00
H2       0.50579    0.62105    0.58398   1.00
H2       0.47639    0.55970    0.62938   1.00
H2       0.50239    0.80753    0.36344   1.00
H2       0.49551    0.76237    0.33647   1.00
C2       0.50264    0.85395    0.49953   1.00
C3       0.47115    0.83403    0.48196   1.00
O2       0.44653    0.85326    0.45657   1.00
C3       0.53177    0.83174    0.51858   1.00
H1       0.55572    0.84615    0.53318   1.00
C3a      0.46998    0.79287    0.48289   1.00
H1       0.44688    0.77798    0.46739   1.00
C3b      0.53118    0.79078    0.51838   1.00
C4       0.50018    0.77100    0.50038   1.00
O3       0.54099    0.72833    0.44190   1.00
C5       0.41121    0.86280    0.47546   1.00
H2       0.39601    0.83609    0.48630   1.00
C5       0.38551    0.88326    0.44546   1.00
H2       0.41647    0.88274    0.50061   1.00
H2       0.37191    0.86068    0.42646   1.00
H2       0.40500    0.90093    0.42637   1.00
C5       0.35396    0.90918    0.46420   1.00
H2       0.33676    0.89176    0.48547   1.00
C5       0.32609    0.92547    0.43296   1.00
H2       0.36714    0.93493    0.47931   1.00
C5       0.54212    0.75983    0.38039   1.00
H2       0.56125    0.73785    0.36599   1.00
H2       0.56164    0.78048    0.39619   1.00
C5       0.51754    0.78200    0.35002   1.00
C5       0.54408    0.79775    0.31738   1.00
H2       0.42090    0.55714    0.67018   1.00
H2       0.46249    0.56553    0.70409   1.00
H2       0.42997    0.60677    0.69027   1.00
H2       0.72183    0.71895    0.52076   1.00
H2       0.70505    0.74449    0.56565   1.00
H2       0.68272    0.69707    0.55144   1.00
H2       0.31650    0.95613    0.44156   1.00
H2       0.34173    0.92656    0.40363   1.00
H2       0.29940    0.90577    0.43055   1.00
H2       0.57593    0.79366    0.32605   1.00
H2       0.53804    0.78116    0.28920   1.00
H2       0.53793    0.83010    0.31273   1.00
C5       0.61715    0.95152    0.11782   1.00
H2       0.59776    0.93054    0.10255   1.00
H2       0.63418    0.93397    0.13910   1.00
C5       0.64459    0.97100    0.08806   1.00
C5       0.67955    0.94436    0.07877   1.00
H2       0.65559    0.99919    0.09985   1.00
O3       0.53786    1.05985    0.27000   1.00
C4       0.49962    0.99982    0.22900   1.00
C3c      0.52877    0.98057    0.20757   1.00
H1       0.55178    0.96524    0.22275   1.00
C3d      0.46959    1.01914    0.20865   1.00
C3       0.52908    0.98121    0.16646   1.00
O2       0.55568    0.95784    0.14752   1.00
C3       0.47022    1.02047    0.16773   1.00
H1       0.44735    1.03681    0.15343   1.00
C2       0.49972    1.00152    0.14561   1.00
C5       0.51594    1.09472    0.27121   1.00
H2       0.51137    1.10532    0.30162   1.00
H2       0.48675    1.09070    0.25734   1.00
C5       0.53861    1.12568    0.24871   1.00
H2       0.54413    1.11462    0.21863   1.00
H2       0.56754    1.12971    0.26302   1.00
C5       0.51600    1.16447    0.24738   1.00
H2       0.51014    1.17555    0.27732   1.00
H2       0.48770    1.16078    0.23189   1.00
C5       0.54002    1.19553    0.22555   1.00
C5       0.41037    1.01674    0.23895   1.00
C5       0.58991    0.97937    0.13930   1.00
H2       0.41992    0.99317    0.25912   1.00
H2       0.39640    1.00313    0.21288   1.00
H2       0.60368    0.98953    0.16700   1.00
H2       0.58398    1.00579    0.12105   1.00
H2       0.62938    0.97639    0.05970   1.00
H2       0.36344    1.00239    0.30753   1.00
H2       0.33647    0.99551    0.26237   1.00
C2       0.49953    1.00264    0.35395   1.00
C3       0.48196    0.97115    0.33403   1.00
O2       0.45657    0.94653    0.35326   1.00
C3       0.51858    1.03177    0.33174   1.00
H1       0.53318    1.05572    0.34615   1.00
C3a      0.48289    0.96998    0.29287   1.00
H1       0.46739    0.94688    0.27798   1.00
C3b      0.51838    1.03118    0.29078   1.00
C4       0.50038    1.00018    0.27100   1.00
O3       0.44190    1.04099    0.22833   1.00
C5       0.47546    0.91121    0.36280   1.00
H2       0.48630    0.89601    0.33609   1.00
C5       0.44546    0.88551    0.38326   1.00
H2       0.50061    0.91647    0.38274   1.00
H2       0.42646    0.87191    0.36068   1.00
H2       0.42637    0.90500    0.40093   1.00
C5       0.46420    0.85396    0.40918   1.00
H2       0.48547    0.83676    0.39176   1.00
C5       0.43296    0.82609    0.42547   1.00
H2       0.47931    0.86714    0.43493   1.00
C5       0.38039    1.04212    0.25983   1.00
H2       0.36599    1.06125    0.23785   1.00
H2       0.39619    1.06164    0.28048   1.00
C5       0.35002    1.01754    0.28200   1.00
C5       0.31738    1.04408    0.29775   1.00
H2       0.67018    0.92090    0.05714   1.00
H2       0.70409    0.96249    0.06553   1.00
H2       0.69027    0.92997    0.10677   1.00
H2       0.52076    1.22183    0.21895   1.00
H2       0.56565    1.20505    0.24449   1.00
H2       0.55144    1.18272    0.19707   1.00
H2       0.44156    0.81650    0.45613   1.00
H2       0.40363    0.84173    0.42656   1.00
H2       0.43055    0.79940    0.40577   1.00
H2       0.32605    1.07593    0.29366   1.00
H2       0.28920    1.03804    0.28116   1.00
H2       0.31273    1.03793    0.33010   1.00
C5       1.11715    0.54848    0.88218   1.00
H2       1.09776    0.56946    0.89745   1.00
H2       1.13418    0.56603    0.86090   1.00
C5       1.14459    0.52900    0.91194   1.00
C5       1.17955    0.55564    0.92123   1.00
H2       1.15559    0.50081    0.90015   1.00
O3       1.03786    0.44015    0.73000   1.00
C4       0.99962    0.50018    0.77100   1.00
C3c      1.02877    0.51943    0.79243   1.00
H1       1.05178    0.53476    0.77725   1.00
C3d      0.96959    0.48086    0.79135   1.00
C3       1.02908    0.51879    0.83354   1.00
O2       1.05568    0.54216    0.85248   1.00
C3       0.97022    0.47953    0.83227   1.00
H1       0.94735    0.46319    0.84657   1.00
C2       0.99972    0.49848    0.85439   1.00
C5       1.01594    0.40528    0.72879   1.00
H2       1.01137    0.39468    0.69838   1.00
H2       0.98675    0.40930    0.74266   1.00
C5       1.03861    0.37432    0.75129   1.00
H2       1.04413    0.38538    0.78137   1.00
H2       1.06754    0.37029    0.73698   1.00
C5       1.01600    0.33553    0.75262   1.00
H2       1.01014    0.32445    0.72268   1.00
H2       0.98770    0.33922    0.76811   1.00
C5       1.04002    0.30447    0.77445   1.00
C5       0.91037    0.48326    0.76105   1.00
C5       1.08991    0.52063    0.86070   1.00
H2       0.91992    0.50683    0.74088   1.00
H2       0.89640    0.49687    0.78712   1.00
H2       1.10368    0.51047    0.83300   1.00
H2       1.08398    0.49421    0.87895   1.00
H2       1.12938    0.52361    0.94030   1.00
H2       0.86344    0.49761    0.69247   1.00
H2       0.83647    0.50449    0.73763   1.00
C2       0.99953    0.49736    0.64605   1.00
C3       0.98196    0.52885    0.66597   1.00
O2       0.95657    0.55347    0.64674   1.00
C3       1.01858    0.46823    0.66826   1.00
H1       1.03318    0.44428    0.65385   1.00
C3a      0.98289    0.53002    0.70713   1.00
H1       0.96739    0.55312    0.72202   1.00
C3b      1.01838    0.46882    0.70922   1.00
C4       1.00038    0.49982    0.72900   1.00
O3       0.94190    0.45901    0.77167   1.00
C5       0.97546    0.58879    0.63720   1.00
H2       0.98630    0.60399    0.66391   1.00
C5       0.94546    0.61449    0.61674   1.00
H2       1.00061    0.58353    0.61726   1.00
H2       0.92646    0.62809    0.63932   1.00
H2       0.92637    0.59500    0.59907   1.00
C5       0.96420    0.64604    0.59082   1.00
H2       0.98547    0.66324    0.60824   1.00
C5       0.93296    0.67391    0.57453   1.00
H2       0.97931    0.63286    0.56507   1.00
C5       0.88039    0.45788    0.74017   1.00
H2       0.86599    0.43875    0.76215   1.00
H2       0.89619    0.43836    0.71952   1.00
C5       0.85002    0.48246    0.71800   1.00
C5       0.81738    0.45592    0.70225   1.00
H2       1.17018    0.57910    0.94286   1.00
H2       1.20409    0.53751    0.93447   1.00
H2       1.19027    0.57003    0.89323   1.00
H2       1.02076    0.27817    0.78105   1.00
H2       1.06565    0.29495    0.75551   1.00
H2       1.05144    0.31728    0.80293   1.00
H2       0.94156    0.68350    0.54387   1.00
H2       0.90363    0.65827    0.57344   1.00
H2       0.93055    0.70060    0.59423   1.00
H2       0.82605    0.42407    0.70634   1.00
H2       0.78920    0.46196    0.71884   1.00
H2       0.81273    0.46207    0.66990   1.00
C5       1.04848    0.88218    0.61715   1.00
H2       1.06946    0.89745    0.59776   1.00
H2       1.06603    0.86090    0.63418   1.00
C5       1.02900    0.91194    0.64459   1.00
C5       1.05564    0.92123    0.67955   1.00
H2       1.00081    0.90015    0.65559   1.00
O3       0.94015    0.73000    0.53786   1.00
C4       1.00018    0.77100    0.49962   1.00
C3c      1.01943    0.79243    0.52877   1.00
H1       1.03476    0.77725    0.55178   1.00
C3d      0.98086    0.79135    0.46959   1.00
C3       1.01879    0.83354    0.52908   1.00
O2       1.04216    0.85248    0.55568   1.00
C3       0.97953    0.83227    0.47022   1.00
H1       0.96319    0.84657    0.44735   1.00
C2       0.99848    0.85439    0.49972   1.00
C5       0.90528    0.72879    0.51594   1.00
H2       0.89468    0.69838    0.51137   1.00
H2       0.90930    0.74266    0.48675   1.00
C5       0.87432    0.75129    0.53861   1.00
H2       0.88538    0.78137    0.54413   1.00
H2       0.87029    0.73698    0.56754   1.00
C5       0.83553    0.75262    0.51600   1.00
H2       0.82445    0.72268    0.51014   1.00
H2       0.83922    0.76811    0.48770   1.00
C5       0.80447    0.77445    0.54002   1.00
C5       0.98326    0.76105    0.41037   1.00
C5       1.02063    0.86070    0.58991   1.00
H2       1.00683    0.74088    0.41992   1.00
H2       0.99687    0.78712    0.39640   1.00
H2       1.01047    0.83300    0.60368   1.00
H2       0.99421    0.87895    0.58398   1.00
H2       1.02361    0.94030    0.62938   1.00
H2       0.99761    0.69247    0.36344   1.00
H2       1.00449    0.73763    0.33647   1.00
C2       0.99736    0.64605    0.49953   1.00
C3       1.02885    0.66597    0.48196   1.00
O2       1.05347    0.64674    0.45657   1.00
C3       0.96823    0.66826    0.51858   1.00
H1       0.94428    0.65385    0.53318   1.00
C3a      1.03002    0.70713    0.48289   1.00
H1       1.05312    0.72202    0.46739   1.00
C3b      0.96882    0.70922    0.51838   1.00
C4       0.99982    0.72900    0.50038   1.00
O3       0.95901    0.77167    0.44190   1.00
C5       1.08879    0.63720    0.47546   1.00
H2       1.10399    0.66391    0.48630   1.00
C5       1.11449    0.61674    0.44546   1.00
H2       1.08353    0.61726    0.50061   1.00
H2       1.12809    0.63932    0.42646   1.00
H2       1.09500    0.59907    0.42637   1.00
C5       1.14604    0.59082    0.46420   1.00
H2       1.16324    0.60824    0.48547   1.00
C5       1.17391    0.57453    0.43296   1.00
H2       1.13286    0.56507    0.47931   1.00
C5       0.95788    0.74017    0.38039   1.00
H2       0.93875    0.76215    0.36599   1.00
H2       0.93836    0.71952    0.39619   1.00
C5       0.98246    0.71800    0.35002   1.00
C5       0.95592    0.70225    0.31738   1.00
H2       1.07910    0.94286    0.67018   1.00
H2       1.03751    0.93447    0.70409   1.00
H2       1.07003    0.89323    0.69027   1.00
H2       0.77817    0.78105    0.52076   1.00
H2       0.79495    0.75551    0.56565   1.00
H2       0.81728    0.80293    0.55144   1.00
H2       1.18350    0.54387    0.44156   1.00
H2       1.15827    0.57344    0.40363   1.00
H2       1.20060    0.59423    0.43055   1.00
H2       0.92407    0.70634    0.32605   1.00
H2       0.96196    0.71884    0.28920   1.00
H2       0.96207    0.66990    0.31273   1.00
C5       0.61782    0.61715    0.45152   1.00
H2       0.60255    0.59776    0.43054   1.00
H2       0.63910    0.63418    0.43397   1.00
C5       0.58806    0.64459    0.47100   1.00
C5       0.57877    0.67955    0.44436   1.00
H2       0.59985    0.65559    0.49919   1.00
O3       0.77000    0.53786    0.55985   1.00
C4       0.72900    0.49962    0.49982   1.00
C3c      0.70757    0.52877    0.48057   1.00
H1       0.72275    0.55178    0.46524   1.00
C3d      0.70865    0.46959    0.51914   1.00
C3       0.66646    0.52908    0.48121   1.00
O2       0.64752    0.55568    0.45784   1.00
C3       0.66773    0.47022    0.52047   1.00
H1       0.65343    0.44735    0.53681   1.00
C2       0.64561    0.49972    0.50152   1.00
C5       0.77121    0.51594    0.59472   1.00
H2       0.80162    0.51137    0.60532   1.00
H2       0.75734    0.48675    0.59070   1.00
C5       0.74871    0.53861    0.62568   1.00
H2       0.71863    0.54413    0.61462   1.00
H2       0.76302    0.56754    0.62971   1.00
C5       0.74738    0.51600    0.66447   1.00
H2       0.77732    0.51014    0.67555   1.00
H2       0.73189    0.48770    0.66078   1.00
C5       0.72555    0.54002    0.69553   1.00
C5       0.73895    0.41037    0.51674   1.00
C5       0.63930    0.58991    0.47937   1.00
H2       0.75912    0.41992    0.49317   1.00
H2       0.71288    0.39640    0.50313   1.00
H2       0.66700    0.60368    0.48953   1.00
H2       0.62105    0.58398    0.50579   1.00
H2       0.55970    0.62938    0.47639   1.00
H2       0.80753    0.36344    0.50239   1.00
H2       0.76237    0.33647    0.49551   1.00
C2       0.85395    0.49953    0.50264   1.00
C3       0.83403    0.48196    0.47115   1.00
O2       0.85326    0.45657    0.44653   1.00
C3       0.83174    0.51858    0.53177   1.00
H1       0.84615    0.53318    0.55572   1.00
C3a      0.79287    0.48289    0.46998   1.00
H1       0.77798    0.46739    0.44688   1.00
C3b      0.79078    0.51838    0.53118   1.00
C4       0.77100    0.50038    0.50018   1.00
O3       0.72833    0.44190    0.54099   1.00
C5       0.86280    0.47546    0.41121   1.00
H2       0.83609    0.48630    0.39601   1.00
C5       0.88326    0.44546    0.38551   1.00
H2       0.88274    0.50061    0.41647   1.00
H2       0.86068    0.42646    0.37191   1.00
H2       0.90093    0.42637    0.40500   1.00
C5       0.90918    0.46420    0.35396   1.00
H2       0.89176    0.48547    0.33676   1.00
C5       0.92547    0.43296    0.32609   1.00
H2       0.93493    0.47931    0.36714   1.00
C5       0.75983    0.38039    0.54212   1.00
H2       0.73785    0.36599    0.56125   1.00
H2       0.78048    0.39619    0.56164   1.00
C5       0.78200    0.35002    0.51754   1.00
C5       0.79775    0.31738    0.54408   1.00
H2       0.55714    0.67018    0.42090   1.00
H2       0.56553    0.70409    0.46249   1.00
H2       0.60677    0.69027    0.42997   1.00
H2       0.71895    0.52076    0.72183   1.00
H2       0.74449    0.56565    0.70505   1.00
H2       0.69707    0.55144    0.68272   1.00
H2       0.95613    0.44156    0.31650   1.00
H2       0.92656    0.40363    0.34173   1.00
H2       0.90577    0.43055    0.29940   1.00
H2       0.79366    0.32605    0.57593   1.00
H2       0.78116    0.28920    0.53804   1.00
H2       0.83010    0.31273    0.53793   1.00
C5       1.38218    0.61715    0.54848   1.00
H2       1.39745    0.59776    0.56946   1.00
H2       1.36090    0.63418    0.56603   1.00
C5       1.41194    0.64459    0.52900   1.00
C5       1.42123    0.67955    0.55564   1.00
H2       1.40015    0.65559    0.50081   1.00
O3       1.23000    0.53786    0.44015   1.00
C4       1.27100    0.49962    0.50018   1.00
C3c      1.29243    0.52877    0.51943   1.00
H1       1.27725    0.55178    0.53476   1.00
C3d      1.29135    0.46959    0.48086   1.00
C3       1.33354    0.52908    0.51879   1.00
O2       1.35248    0.55568    0.54216   1.00
C3       1.33227    0.47022    0.47953   1.00
H1       1.34657    0.44735    0.46319   1.00
C2       1.35439    0.49972    0.49848   1.00
C5       1.22879    0.51594    0.40528   1.00
H2       1.19838    0.51137    0.39468   1.00
H2       1.24266    0.48675    0.40930   1.00
C5       1.25129    0.53861    0.37432   1.00
H2       1.28137    0.54413    0.38538   1.00
H2       1.23698    0.56754    0.37029   1.00
C5       1.25262    0.51600    0.33553   1.00
H2       1.22268    0.51014    0.32445   1.00
H2       1.26811    0.48770    0.33922   1.00
C5       1.27445    0.54002    0.30447   1.00
C5       1.26105    0.41037    0.48326   1.00
C5       1.36070    0.58991    0.52063   1.00
H2       1.24088    0.41992    0.50683   1.00
H2       1.28712    0.39640    0.49687   1.00
H2       1.33300    0.60368    0.51047   1.00
H2       1.37895    0.58398    0.49421   1.00
H2       1.44030    0.62938    0.52361   1.00
H2       1.19247    0.36344    0.49761   1.00
H2       1.23763    0.33647    0.50449   1.00
C2       1.14605    0.49953    0.49736   1.00
C3       1.16597    0.48196    0.52885   1.00
O2       1.14674    0.45657    0.55347   1.00
C3       1.16826    0.51858    0.46823   1.00
H1       1.15385    0.53318    0.44428   1.00
C3a      1.20713    0.48289    0.53002   1.00
H1       1.22202    0.46739    0.55312   1.00
C3b      1.20922    0.51838    0.46882   1.00
C4       1.22900    0.50038    0.49982   1.00
O3       1.27167    0.44190    0.45901   1.00
C5       1.13720    0.47546    0.58879   1.00
H2       1.16391    0.48630    0.60399   1.00
C5       1.11674    0.44546    0.61449   1.00
H2       1.11726    0.50061    0.58353   1.00
H2       1.13932    0.42646    0.62809   1.00
H2       1.09907    0.42637    0.59500   1.00
C5       1.09082    0.46420    0.64604   1.00
H2       1.10824    0.48547    0.66324   1.00
C5       1.07453    0.43296    0.67391   1.00
H2       1.06507    0.47931    0.63286   1.00
C5       1.24017    0.38039    0.45788   1.00
H2       1.26215    0.36599    0.43875   1.00
H2       1.21952    0.39619    0.43836   1.00
C5       1.21800    0.35002    0.48246   1.00
C5       1.20225    0.31738    0.45592   1.00
H2       1.44286    0.67018    0.57910   1.00
H2       1.43447    0.70409    0.53751   1.00
H2       1.39323    0.69027    0.57003   1.00
H2       1.28105    0.52076    0.27817   1.00
H2       1.25551    0.56565    0.29495   1.00
H2       1.30293    0.55144    0.31728   1.00
H2       1.04387    0.44156    0.68350   1.00
H2       1.07344    0.40363    0.65827   1.00
H2       1.09423    0.43055    0.70060   1.00
H2       1.20634    0.32605    0.42407   1.00
H2       1.21884    0.28920    0.46196   1.00
H2       1.16990    0.31273    0.46207   1.00
C5       0.95152    0.11782    0.61715   1.00
H2       0.93054    0.10255    0.59776   1.00
H2       0.93397    0.13910    0.63418   1.00
C5       0.97100    0.08806    0.64459   1.00
C5       0.94436    0.07877    0.67955   1.00
H2       0.99919    0.09985    0.65559   1.00
O3       1.05985    0.27000    0.53786   1.00
C4       0.99982    0.22900    0.49962   1.00
C3c      0.98057    0.20757    0.52877   1.00
H1       0.96524    0.22275    0.55178   1.00
C3d      1.01914    0.20865    0.46959   1.00
C3       0.98121    0.16646    0.52908   1.00
O2       0.95784    0.14752    0.55568   1.00
C3       1.02047    0.16773    0.47022   1.00
H1       1.03681    0.15343    0.44735   1.00
C2       1.00152    0.14561    0.49972   1.00
C5       1.09472    0.27121    0.51594   1.00
H2       1.10532    0.30162    0.51137   1.00
H2       1.09070    0.25734    0.48675   1.00
C5       1.12568    0.24871    0.53861   1.00
H2       1.11462    0.21863    0.54413   1.00
H2       1.12971    0.26302    0.56754   1.00
C5       1.16447    0.24738    0.51600   1.00
H2       1.17555    0.27732    0.51014   1.00
H2       1.16078    0.23189    0.48770   1.00
C5       1.19553    0.22555    0.54002   1.00
C5       1.01674    0.23895    0.41037   1.00
C5       0.97937    0.13930    0.58991   1.00
H2       0.99317    0.25912    0.41992   1.00
H2       1.00313    0.21288    0.39640   1.00
H2       0.98953    0.16700    0.60368   1.00
H2       1.00579    0.12105    0.58398   1.00
H2       0.97639    0.05970    0.62938   1.00
H2       1.00239    0.30753    0.36344   1.00
H2       0.99551    0.26237    0.33647   1.00
C2       1.00264    0.35395    0.49953   1.00
C3       0.97115    0.33403    0.48196   1.00
O2       0.94653    0.35326    0.45657   1.00
C3       1.03177    0.33174    0.51858   1.00
H1       1.05572    0.34615    0.53318   1.00
C3a      0.96998    0.29287    0.48289   1.00
H1       0.94688    0.27798    0.46739   1.00
C3b      1.03118    0.29078    0.51838   1.00
C4       1.00018    0.27100    0.50038   1.00
O3       1.04099    0.22833    0.44190   1.00
C5       0.91121    0.36280    0.47546   1.00
H2       0.89601    0.33609    0.48630   1.00
C5       0.88551    0.38326    0.44546   1.00
H2       0.91647    0.38274    0.50061   1.00
H2       0.87191    0.36068    0.42646   1.00
H2       0.90500    0.40093    0.42637   1.00
C5       0.85396    0.40918    0.46420   1.00
H2       0.83676    0.39176    0.48547   1.00
C5       0.82609    0.42547    0.43296   1.00
H2       0.86714    0.43493    0.47931   1.00
C5       1.04212    0.25983    0.38039   1.00
H2       1.06125    0.23785    0.36599   1.00
H2       1.06164    0.28048    0.39619   1.00
C5       1.01754    0.28200    0.35002   1.00
C5       1.04408    0.29775    0.31738   1.00
H2       0.92090    0.05714    0.67018   1.00
H2       0.96249    0.06553    0.70409   1.00
H2       0.92997    0.10677    0.69027   1.00
H2       1.22183    0.21895    0.52076   1.00
H2       1.20505    0.24449    0.56565   1.00
H2       1.18272    0.19707    0.55144   1.00
H2       0.81650    0.45613    0.44156   1.00
H2       0.84173    0.42656    0.40363   1.00
H2       0.79940    0.40577    0.43055   1.00
H2       1.07593    0.29366    0.32605   1.00
H2       1.03804    0.28116    0.28920   1.00
H2       1.03793    0.33010    0.31273   1.00
C5       1.11715    0.45152    0.11782   1.00
H2       1.09776    0.43054    0.10255   1.00
H2       1.13418    0.43397    0.13910   1.00
C5       1.14459    0.47100    0.08806   1.00
C5       1.17955    0.44436    0.07877   1.00
H2       1.15559    0.49919    0.09985   1.00
O3       1.03786    0.55985    0.27000   1.00
C4       0.99962    0.49982    0.22900   1.00
C3c      1.02877    0.48057    0.20757   1.00
H1       1.05178    0.46524    0.22275   1.00
C3d      0.96959    0.51914    0.20865   1.00
C3       1.02908    0.48121    0.16646   1.00
O2       1.05568    0.45784    0.14752   1.00
C3       0.97022    0.52047    0.16773   1.00
H1       0.94735    0.53681    0.15343   1.00
C2       0.99972    0.50152    0.14561   1.00
C5       1.01594    0.59472    0.27121   1.00
H2       1.01137    0.60532    0.30162   1.00
H2       0.98675    0.59070    0.25734   1.00
C5       1.03861    0.62568    0.24871   1.00
H2       1.04413    0.61462    0.21863   1.00
H2       1.06754    0.62971    0.26302   1.00
C5       1.01600    0.66447    0.24738   1.00
H2       1.01014    0.67555    0.27732   1.00
H2       0.98770    0.66078    0.23189   1.00
C5       1.04002    0.69553    0.22555   1.00
C5       0.91037    0.51674    0.23895   1.00
C5       1.08991    0.47937    0.13930   1.00
H2       0.91992    0.49317    0.25912   1.00
H2       0.89640    0.50313    0.21288   1.00
H2       1.10368    0.48953    0.16700   1.00
H2       1.08398    0.50579    0.12105   1.00
H2       1.12938    0.47639    0.05970   1.00
H2       0.86344    0.50239    0.30753   1.00
H2       0.83647    0.49551    0.26237   1.00
C2       0.99953    0.50264    0.35395   1.00
C3       0.98196    0.47115    0.33403   1.00
O2       0.95657    0.44653    0.35326   1.00
C3       1.01858    0.53177    0.33174   1.00
H1       1.03318    0.55572    0.34615   1.00
C3a      0.98289    0.46998    0.29287   1.00
H1       0.96739    0.44688    0.27798   1.00
C3b      1.01838    0.53118    0.29078   1.00
C4       1.00038    0.50018    0.27100   1.00
O3       0.94190    0.54099    0.22833   1.00
C5       0.97546    0.41121    0.36280   1.00
H2       0.98630    0.39601    0.33609   1.00
C5       0.94546    0.38551    0.38326   1.00
H2       1.00061    0.41647    0.38274   1.00
H2       0.92646    0.37191    0.36068   1.00
H2       0.92637    0.40500    0.40093   1.00
C5       0.96420    0.35396    0.40918   1.00
H2       0.98547    0.33676    0.39176   1.00
C5       0.93296    0.32609    0.42547   1.00
H2       0.97931    0.36714    0.43493   1.00
C5       0.88039    0.54212    0.25983   1.00
H2       0.86599    0.56125    0.23785   1.00
H2       0.89619    0.56164    0.28048   1.00
C5       0.85002    0.51754    0.28200   1.00
C5       0.81738    0.54408    0.29775   1.00
H2       1.17018    0.42090    0.05714   1.00
H2       1.20409    0.46249    0.06553   1.00
H2       1.19027    0.42997    0.10677   1.00
H2       1.02076    0.72183    0.21895   1.00
H2       1.06565    0.70505    0.24449   1.00
H2       1.05144    0.68272    0.19707   1.00
H2       0.94156    0.31650    0.45613   1.00
H2       0.90363    0.34173    0.42656   1.00
H2       0.93055    0.29940    0.40577   1.00
H2       0.82605    0.57593    0.29366   1.00
H2       0.78920    0.53804    0.28116   1.00
H2       0.81273    0.53793    0.33010   1.00
