data_IRMOF10_SG202_interpen_Ligand11lp_label_f.

_audit_creation_method             'generated by an auxiliary program of Tobunporous'

_symmetry_space_group_name_H-M     'P 1'
_symmetry_Int_Tables_number        1
_symmetry_cell_setting             triclinic

_cell_length_a                    34.2800
_cell_length_b                    34.2800
_cell_length_c                    34.2800
_cell_angle_alpha                 90.0000
_cell_angle_beta                  90.0000
_cell_angle_gamma                 90.0000

loop_
_atom_site_label
_atom_site_fract_x
_atom_site_fract_y
_atom_site_fract_z
_atom_site_occupancy
O1       0.75000    0.75000    0.75000   1.00
Zn1      0.71720    0.78280    0.78280   1.00
Zn1      0.78280    0.71720    0.78280   1.00
Zn1      0.78280    0.78280    0.71720   1.00
Zn1      0.71720    0.71720    0.71720   1.00
O2       0.72650    0.77350    0.83820   1.00
O2       0.72650    0.83820    0.77350   1.00
O2       0.66180    0.77350    0.77350   1.00
O2       0.77350    0.72650    0.83820   1.00
O2       0.83820    0.72650    0.77350   1.00
O2       0.77350    0.66180    0.77350   1.00
O2       0.77350    0.83820    0.72650   1.00
O2       0.83820    0.77350    0.72650   1.00
O2       0.77350    0.77350    0.66180   1.00
O2       0.66180    0.72650    0.72650   1.00
O2       0.72650    0.66180    0.72650   1.00
O2       0.72650    0.72650    0.66180   1.00
C1       0.75000    0.75000    0.85520   1.00
C1       0.75000    0.85520    0.75000   1.00
C1       0.64480    0.75000    0.75000   1.00
C1       0.85520    0.75000    0.75000   1.00
C1       0.75000    0.64480    0.75000   1.00
C1       0.75000    0.75000    0.64480   1.00
O1       0.25000    0.25000    0.75000   1.00
Zn1      0.21720    0.28280    0.78280   1.00
Zn1      0.28280    0.21720    0.78280   1.00
Zn1      0.28280    0.28280    0.71720   1.00
Zn1      0.21720    0.21720    0.71720   1.00
O2       0.22650    0.27350    0.83820   1.00
O2       0.22650    0.33820    0.77350   1.00
O2       0.16180    0.27350    0.77350   1.00
O2       0.27350    0.22650    0.83820   1.00
O2       0.33820    0.22650    0.77350   1.00
O2       0.27350    0.16180    0.77350   1.00
O2       0.27350    0.33820    0.72650   1.00
O2       0.33820    0.27350    0.72650   1.00
O2       0.27350    0.27350    0.66180   1.00
O2       0.16180    0.22650    0.72650   1.00
O2       0.22650    0.16180    0.72650   1.00
O2       0.22650    0.22650    0.66180   1.00
C1       0.25000    0.25000    0.85520   1.00
C1       0.25000    0.35520    0.75000   1.00
C1       0.14480    0.25000    0.75000   1.00
C1       0.35520    0.25000    0.75000   1.00
C1       0.25000    0.14480    0.75000   1.00
C1       0.25000    0.25000    0.64480   1.00
O1       0.25000    0.75000    0.25000   1.00
Zn1      0.21720    0.78280    0.28280   1.00
Zn1      0.28280    0.71720    0.28280   1.00
Zn1      0.28280    0.78280    0.21720   1.00
Zn1      0.21720    0.71720    0.21720   1.00
O2       0.22650    0.77350    0.33820   1.00
O2       0.22650    0.83820    0.27350   1.00
O2       0.16180    0.77350    0.27350   1.00
O2       0.27350    0.72650    0.33820   1.00
O2       0.33820    0.72650    0.27350   1.00
O2       0.27350    0.66180    0.27350   1.00
O2       0.27350    0.83820    0.22650   1.00
O2       0.33820    0.77350    0.22650   1.00
O2       0.27350    0.77350    0.16180   1.00
O2       0.16180    0.72650    0.22650   1.00
O2       0.22650    0.66180    0.22650   1.00
O2       0.22650    0.72650    0.16180   1.00
C1       0.25000    0.75000    0.35520   1.00
C1       0.25000    0.85520    0.25000   1.00
C1       0.14480    0.75000    0.25000   1.00
C1       0.35520    0.75000    0.25000   1.00
C1       0.25000    0.64480    0.25000   1.00
C1       0.25000    0.75000    0.14480   1.00
O1       0.75000    0.25000    0.25000   1.00
Zn1      0.71720    0.28280    0.28280   1.00
Zn1      0.78280    0.21720    0.28280   1.00
Zn1      0.78280    0.28280    0.21720   1.00
Zn1      0.71720    0.21720    0.21720   1.00
O2       0.72650    0.27350    0.33820   1.00
O2       0.72650    0.33820    0.27350   1.00
O2       0.66180    0.27350    0.27350   1.00
O2       0.77350    0.22650    0.33820   1.00
O2       0.83820    0.22650    0.27350   1.00
O2       0.77350    0.16180    0.27350   1.00
O2       0.77350    0.33820    0.22650   1.00
O2       0.83820    0.27350    0.22650   1.00
O2       0.77350    0.27350    0.16180   1.00
O2       0.66180    0.22650    0.22650   1.00
O2       0.72650    0.16180    0.22650   1.00
O2       0.72650    0.22650    0.16180   1.00
C1       0.75000    0.25000    0.35520   1.00
C1       0.75000    0.35520    0.25000   1.00
C1       0.64480    0.25000    0.25000   1.00
C1       0.85520    0.25000    0.25000   1.00
C1       0.75000    0.14480    0.25000   1.00
C1       0.75000    0.25000    0.14480   1.00
O1       0.25000    0.25000    0.25000   1.00
Zn1      0.28280    0.21720    0.21720   1.00
Zn1      0.21720    0.28280    0.21720   1.00
Zn1      0.21720    0.21720    0.28280   1.00
Zn1      0.28280    0.28280    0.28280   1.00
O2       0.27350    0.22650    0.16180   1.00
O2       0.27350    0.16180    0.22650   1.00
O2       0.33820    0.22650    0.22650   1.00
O2       0.22650    0.27350    0.16180   1.00
O2       0.16180    0.27350    0.22650   1.00
O2       0.22650    0.33820    0.22650   1.00
O2       0.22650    0.16180    0.27350   1.00
O2       0.16180    0.22650    0.27350   1.00
O2       0.22650    0.22650    0.33820   1.00
O2       0.33820    0.27350    0.27350   1.00
O2       0.27350    0.33820    0.27350   1.00
O2       0.27350    0.27350    0.33820   1.00
C1       0.25000    0.25000    0.14480   1.00
C1       0.25000    0.14480    0.25000   1.00
C1       0.35520    0.25000    0.25000   1.00
C1       0.14480    0.25000    0.25000   1.00
C1       0.25000    0.35520    0.25000   1.00
C1       0.25000    0.25000    0.35520   1.00
O1       0.75000    0.75000    0.25000   1.00
Zn1      0.78280    0.71720    0.21720   1.00
Zn1      0.71720    0.78280    0.21720   1.00
Zn1      0.71720    0.71720    0.28280   1.00
Zn1      0.78280    0.78280    0.28280   1.00
O2       0.77350    0.72650    0.16180   1.00
O2       0.77350    0.66180    0.22650   1.00
O2       0.83820    0.72650    0.22650   1.00
O2       0.72650    0.77350    0.16180   1.00
O2       0.66180    0.77350    0.22650   1.00
O2       0.72650    0.83820    0.22650   1.00
O2       0.72650    0.66180    0.27350   1.00
O2       0.66180    0.72650    0.27350   1.00
O2       0.72650    0.72650    0.33820   1.00
O2       0.83820    0.77350    0.27350   1.00
O2       0.77350    0.83820    0.27350   1.00
O2       0.77350    0.77350    0.33820   1.00
C1       0.75000    0.75000    0.14480   1.00
C1       0.75000    0.64480    0.25000   1.00
C1       0.85520    0.75000    0.25000   1.00
C1       0.64480    0.75000    0.25000   1.00
C1       0.75000    0.85520    0.25000   1.00
C1       0.75000    0.75000    0.35520   1.00
O1       0.75000    0.25000    0.75000   1.00
Zn1      0.78280    0.21720    0.71720   1.00
Zn1      0.71720    0.28280    0.71720   1.00
Zn1      0.71720    0.21720    0.78280   1.00
Zn1      0.78280    0.28280    0.78280   1.00
O2       0.77350    0.22650    0.66180   1.00
O2       0.77350    0.16180    0.72650   1.00
O2       0.83820    0.22650    0.72650   1.00
O2       0.72650    0.27350    0.66180   1.00
O2       0.66180    0.27350    0.72650   1.00
O2       0.72650    0.33820    0.72650   1.00
O2       0.72650    0.16180    0.77350   1.00
O2       0.66180    0.22650    0.77350   1.00
O2       0.72650    0.22650    0.83820   1.00
O2       0.83820    0.27350    0.77350   1.00
O2       0.77350    0.33820    0.77350   1.00
O2       0.77350    0.27350    0.83820   1.00
C1       0.75000    0.25000    0.64480   1.00
C1       0.75000    0.14480    0.75000   1.00
C1       0.85520    0.25000    0.75000   1.00
C1       0.64480    0.25000    0.75000   1.00
C1       0.75000    0.35520    0.75000   1.00
C1       0.75000    0.25000    0.85520   1.00
O1       0.25000    0.75000    0.75000   1.00
Zn1      0.28280    0.71720    0.71720   1.00
Zn1      0.21720    0.78280    0.71720   1.00
Zn1      0.21720    0.71720    0.78280   1.00
Zn1      0.28280    0.78280    0.78280   1.00
O2       0.27350    0.72650    0.66180   1.00
O2       0.27350    0.66180    0.72650   1.00
O2       0.33820    0.72650    0.72650   1.00
O2       0.22650    0.77350    0.66180   1.00
O2       0.16180    0.77350    0.72650   1.00
O2       0.22650    0.83820    0.72650   1.00
O2       0.22650    0.66180    0.77350   1.00
O2       0.16180    0.72650    0.77350   1.00
O2       0.22650    0.72650    0.83820   1.00
O2       0.33820    0.77350    0.77350   1.00
O2       0.27350    0.83820    0.77350   1.00
O2       0.27350    0.77350    0.83820   1.00
C1       0.25000    0.75000    0.64480   1.00
C1       0.25000    0.64480    0.75000   1.00
C1       0.35520    0.75000    0.75000   1.00
C1       0.14480    0.75000    0.75000   1.00
C1       0.25000    0.85520    0.75000   1.00
C1       0.25000    0.75000    0.85520   1.00
O1       1.00000    1.00000    1.00000   1.00
Zn1      0.96720    1.03280    1.03280   1.00
Zn1      1.03280    0.96720    1.03280   1.00
Zn1      1.03280    1.03280    0.96720   1.00
Zn1      0.96720    0.96720    0.96720   1.00
O2       0.97650    1.02350    1.08820   1.00
O2       0.97650    1.08820    1.02350   1.00
O2       0.91180    1.02350    1.02350   1.00
O2       1.02350    0.97650    1.08820   1.00
O2       1.08820    0.97650    1.02350   1.00
O2       1.02350    0.91180    1.02350   1.00
O2       1.02350    1.08820    0.97650   1.00
O2       1.08820    1.02350    0.97650   1.00
O2       1.02350    1.02350    0.91180   1.00
O2       0.91180    0.97650    0.97650   1.00
O2       0.97650    0.91180    0.97650   1.00
O2       0.97650    0.97650    0.91180   1.00
C1       1.00000    1.00000    1.10520   1.00
C1       1.00000    1.10520    1.00000   1.00
C1       0.89480    1.00000    1.00000   1.00
C1       1.10520    1.00000    1.00000   1.00
C1       1.00000    0.89480    1.00000   1.00
C1       1.00000    1.00000    0.89480   1.00
O1       0.50000    0.50000    1.00000   1.00
Zn1      0.46720    0.53280    1.03280   1.00
Zn1      0.53280    0.46720    1.03280   1.00
Zn1      0.53280    0.53280    0.96720   1.00
Zn1      0.46720    0.46720    0.96720   1.00
O2       0.47650    0.52350    1.08820   1.00
O2       0.47650    0.58820    1.02350   1.00
O2       0.41180    0.52350    1.02350   1.00
O2       0.52350    0.47650    1.08820   1.00
O2       0.58820    0.47650    1.02350   1.00
O2       0.52350    0.41180    1.02350   1.00
O2       0.52350    0.58820    0.97650   1.00
O2       0.58820    0.52350    0.97650   1.00
O2       0.52350    0.52350    0.91180   1.00
O2       0.41180    0.47650    0.97650   1.00
O2       0.47650    0.41180    0.97650   1.00
O2       0.47650    0.47650    0.91180   1.00
C1       0.50000    0.50000    1.10520   1.00
C1       0.50000    0.60520    1.00000   1.00
C1       0.39480    0.50000    1.00000   1.00
C1       0.60520    0.50000    1.00000   1.00
C1       0.50000    0.39480    1.00000   1.00
C1       0.50000    0.50000    0.89480   1.00
O1       0.50000    1.00000    0.50000   1.00
Zn1      0.46720    1.03280    0.53280   1.00
Zn1      0.53280    0.96720    0.53280   1.00
Zn1      0.53280    1.03280    0.46720   1.00
Zn1      0.46720    0.96720    0.46720   1.00
O2       0.47650    1.02350    0.58820   1.00
O2       0.47650    1.08820    0.52350   1.00
O2       0.41180    1.02350    0.52350   1.00
O2       0.52350    0.97650    0.58820   1.00
O2       0.58820    0.97650    0.52350   1.00
O2       0.52350    0.91180    0.52350   1.00
O2       0.52350    1.08820    0.47650   1.00
O2       0.58820    1.02350    0.47650   1.00
O2       0.52350    1.02350    0.41180   1.00
O2       0.41180    0.97650    0.47650   1.00
O2       0.47650    0.91180    0.47650   1.00
O2       0.47650    0.97650    0.41180   1.00
C1       0.50000    1.00000    0.60520   1.00
C1       0.50000    1.10520    0.50000   1.00
C1       0.39480    1.00000    0.50000   1.00
C1       0.60520    1.00000    0.50000   1.00
C1       0.50000    0.89480    0.50000   1.00
C1       0.50000    1.00000    0.39480   1.00
O1       1.00000    0.50000    0.50000   1.00
Zn1      0.96720    0.53280    0.53280   1.00
Zn1      1.03280    0.46720    0.53280   1.00
Zn1      1.03280    0.53280    0.46720   1.00
Zn1      0.96720    0.46720    0.46720   1.00
O2       0.97650    0.52350    0.58820   1.00
O2       0.97650    0.58820    0.52350   1.00
O2       0.91180    0.52350    0.52350   1.00
O2       1.02350    0.47650    0.58820   1.00
O2       1.08820    0.47650    0.52350   1.00
O2       1.02350    0.41180    0.52350   1.00
O2       1.02350    0.58820    0.47650   1.00
O2       1.08820    0.52350    0.47650   1.00
O2       1.02350    0.52350    0.41180   1.00
O2       0.91180    0.47650    0.47650   1.00
O2       0.97650    0.41180    0.47650   1.00
O2       0.97650    0.47650    0.41180   1.00
C1       1.00000    0.50000    0.60520   1.00
C1       1.00000    0.60520    0.50000   1.00
C1       0.89480    0.50000    0.50000   1.00
C1       1.10520    0.50000    0.50000   1.00
C1       1.00000    0.39480    0.50000   1.00
C1       1.00000    0.50000    0.39480   1.00
O1       0.50000    0.50000    0.50000   1.00
Zn1      0.53280    0.46720    0.46720   1.00
Zn1      0.46720    0.53280    0.46720   1.00
Zn1      0.46720    0.46720    0.53280   1.00
Zn1      0.53280    0.53280    0.53280   1.00
O2       0.52350    0.47650    0.41180   1.00
O2       0.52350    0.41180    0.47650   1.00
O2       0.58820    0.47650    0.47650   1.00
O2       0.47650    0.52350    0.41180   1.00
O2       0.41180    0.52350    0.47650   1.00
O2       0.47650    0.58820    0.47650   1.00
O2       0.47650    0.41180    0.52350   1.00
O2       0.41180    0.47650    0.52350   1.00
O2       0.47650    0.47650    0.58820   1.00
O2       0.58820    0.52350    0.52350   1.00
O2       0.52350    0.58820    0.52350   1.00
O2       0.52350    0.52350    0.58820   1.00
C1       0.50000    0.50000    0.39480   1.00
C1       0.50000    0.39480    0.50000   1.00
C1       0.60520    0.50000    0.50000   1.00
C1       0.39480    0.50000    0.50000   1.00
C1       0.50000    0.60520    0.50000   1.00
C1       0.50000    0.50000    0.60520   1.00
O1       1.00000    1.00000    0.50000   1.00
Zn1      1.03280    0.96720    0.46720   1.00
Zn1      0.96720    1.03280    0.46720   1.00
Zn1      0.96720    0.96720    0.53280   1.00
Zn1      1.03280    1.03280    0.53280   1.00
O2       1.02350    0.97650    0.41180   1.00
O2       1.02350    0.91180    0.47650   1.00
O2       1.08820    0.97650    0.47650   1.00
O2       0.97650    1.02350    0.41180   1.00
O2       0.91180    1.02350    0.47650   1.00
O2       0.97650    1.08820    0.47650   1.00
O2       0.97650    0.91180    0.52350   1.00
O2       0.91180    0.97650    0.52350   1.00
O2       0.97650    0.97650    0.58820   1.00
O2       1.08820    1.02350    0.52350   1.00
O2       1.02350    1.08820    0.52350   1.00
O2       1.02350    1.02350    0.58820   1.00
C1       1.00000    1.00000    0.39480   1.00
C1       1.00000    0.89480    0.50000   1.00
C1       1.10520    1.00000    0.50000   1.00
C1       0.89480    1.00000    0.50000   1.00
C1       1.00000    1.10520    0.50000   1.00
C1       1.00000    1.00000    0.60520   1.00
O1       1.00000    0.50000    1.00000   1.00
Zn1      1.03280    0.46720    0.96720   1.00
Zn1      0.96720    0.53280    0.96720   1.00
Zn1      0.96720    0.46720    1.03280   1.00
Zn1      1.03280    0.53280    1.03280   1.00
O2       1.02350    0.47650    0.91180   1.00
O2       1.02350    0.41180    0.97650   1.00
O2       1.08820    0.47650    0.97650   1.00
O2       0.97650    0.52350    0.91180   1.00
O2       0.91180    0.52350    0.97650   1.00
O2       0.97650    0.58820    0.97650   1.00
O2       0.97650    0.41180    1.02350   1.00
O2       0.91180    0.47650    1.02350   1.00
O2       0.97650    0.47650    1.08820   1.00
O2       1.08820    0.52350    1.02350   1.00
O2       1.02350    0.58820    1.02350   1.00
O2       1.02350    0.52350    1.08820   1.00
C1       1.00000    0.50000    0.89480   1.00
C1       1.00000    0.39480    1.00000   1.00
C1       1.10520    0.50000    1.00000   1.00
C1       0.89480    0.50000    1.00000   1.00
C1       1.00000    0.60520    1.00000   1.00
C1       1.00000    0.50000    1.10520   1.00
O1       0.50000    1.00000    1.00000   1.00
Zn1      0.53280    0.96720    0.96720   1.00
Zn1      0.46720    1.03280    0.96720   1.00
Zn1      0.46720    0.96720    1.03280   1.00
Zn1      0.53280    1.03280    1.03280   1.00
O2       0.52350    0.97650    0.91180   1.00
O2       0.52350    0.91180    0.97650   1.00
O2       0.58820    0.97650    0.97650   1.00
O2       0.47650    1.02350    0.91180   1.00
O2       0.41180    1.02350    0.97650   1.00
O2       0.47650    1.08820    0.97650   1.00
O2       0.47650    0.91180    1.02350   1.00
O2       0.41180    0.97650    1.02350   1.00
O2       0.47650    0.97650    1.08820   1.00
O2       0.58820    1.02350    1.02350   1.00
O2       0.52350    1.08820    1.02350   1.00
O2       0.52350    1.02350    1.08820   1.00
C1       0.50000    1.00000    0.89480   1.00
C1       0.50000    0.89480    1.00000   1.00
C1       0.60520    1.00000    1.00000   1.00
C1       0.39480    1.00000    1.00000   1.00
C1       0.50000    1.10520    1.00000   1.00
C1       0.50000    1.00000    1.10520   1.00
C4       0.75020    0.74997    0.97915   1.00
C4       0.74980    0.75003    1.02085   1.00
C3a      0.78065    0.76837    0.95746   1.00
C3       0.77306    0.72370    1.04232   1.00
C3       0.72033    0.73148    0.95768   1.00
C3a      0.72597    0.77644    1.04254   1.00
C2       0.74999    0.74992    0.89488   1.00
C2       0.74998    0.74992    1.10512   1.00
C3       0.78002    0.76811    0.91595   1.00
C3       0.77320    0.72376    1.08363   1.00
C3       0.72021    0.73158    0.91637   1.00
C3       0.72650    0.77601    1.08405   1.00
C5       0.81396    0.78909    0.97772   1.00
H1       0.79154    0.70321    1.02691   1.00
H1       0.80312    0.78231    0.89979   1.00
H1       0.79162    0.70324    1.09901   1.00
H1       0.69664    0.71726    0.90099   1.00
H1       0.70848    0.79628    1.10021   1.00
C5       0.70006    0.80591    1.02228   1.00
H1       0.69672    0.71720    0.97309   1.00
H2       0.69308    0.83020    1.04256   1.00
H2       0.71576    0.81932    0.99731   1.00
H2       0.82767    0.81033    0.95744   1.00
H2       0.80281    0.80647    1.00269   1.00
N1       0.66395    0.78768    1.00857   1.00
C6       0.63556    0.77275    1.03073   1.00
C6       0.65256    0.78380    0.97154   1.00
C6       0.60590    0.75867    1.00759   1.00
C6       0.61670    0.76570    0.96995   1.00
H3       0.63638    0.77175    1.06197   1.00
H3       0.66941    0.79324    0.94700   1.00
H3       0.57934    0.74485    1.01713   1.00
H3       0.60028    0.75842    0.94425   1.00
N1       0.84327    0.76121    0.99143   1.00
C6       0.85305    0.75420    1.02846   1.00
C6       0.86613    0.73871    0.96927   1.00
C6       0.88215    0.72652    1.03005   1.00
C6       0.89046    0.71666    0.99241   1.00
H3       0.83965    0.76811    1.05300   1.00
H3       0.86506    0.73799    0.93803   1.00
H3       0.89577    0.71480    1.05575   1.00
H3       0.91189    0.69576    0.98287   1.00
C4       0.74997    0.97915    0.75020   1.00
C4       0.75003    1.02085    0.74980   1.00
C3a      0.76837    0.95746    0.78065   1.00
C3       0.72370    1.04232    0.77306   1.00
C3       0.73148    0.95768    0.72033   1.00
C3a      0.77644    1.04254    0.72597   1.00
C2       0.74992    0.89488    0.74999   1.00
C2       0.74992    1.10512    0.74998   1.00
C3       0.76811    0.91595    0.78002   1.00
C3       0.72376    1.08363    0.77320   1.00
C3       0.73158    0.91637    0.72021   1.00
C3       0.77601    1.08405    0.72650   1.00
C5       0.78909    0.97772    0.81396   1.00
H1       0.70321    1.02691    0.79154   1.00
H1       0.78231    0.89979    0.80312   1.00
H1       0.70324    1.09901    0.79162   1.00
H1       0.71726    0.90099    0.69664   1.00
H1       0.79628    1.10021    0.70848   1.00
C5       0.80591    1.02228    0.70006   1.00
H1       0.71720    0.97309    0.69672   1.00
H2       0.83020    1.04256    0.69308   1.00
H2       0.81932    0.99731    0.71576   1.00
H2       0.81033    0.95744    0.82767   1.00
H2       0.80647    1.00269    0.80281   1.00
N1       0.78768    1.00857    0.66395   1.00
C6       0.77275    1.03073    0.63556   1.00
C6       0.78380    0.97154    0.65256   1.00
C6       0.75867    1.00759    0.60590   1.00
C6       0.76570    0.96995    0.61670   1.00
H3       0.77175    1.06197    0.63638   1.00
H3       0.79324    0.94700    0.66941   1.00
H3       0.74485    1.01713    0.57934   1.00
H3       0.75842    0.94425    0.60028   1.00
N1       0.76121    0.99143    0.84327   1.00
C6       0.75420    1.02846    0.85305   1.00
C6       0.73871    0.96927    0.86613   1.00
C6       0.72652    1.03005    0.88215   1.00
C6       0.71666    0.99241    0.89046   1.00
H3       0.76811    1.05300    0.83965   1.00
H3       0.73799    0.93803    0.86506   1.00
H3       0.71480    1.05575    0.89577   1.00
H3       0.69576    0.98287    0.91189   1.00
C4       0.52085    0.75020    0.75003   1.00
C4       0.47915    0.74980    0.74997   1.00
C3a      0.54254    0.78065    0.73163   1.00
C3       0.45768    0.77306    0.77630   1.00
C3       0.54232    0.72033    0.76852   1.00
C3a      0.45746    0.72597    0.72356   1.00
C2       0.60512    0.74999    0.75008   1.00
C2       0.39488    0.74998    0.75008   1.00
C3       0.58405    0.78002    0.73189   1.00
C3       0.41637    0.77320    0.77624   1.00
C3       0.58363    0.72021    0.76842   1.00
C3       0.41595    0.72650    0.72399   1.00
C5       0.52228    0.81396    0.71091   1.00
H1       0.47309    0.79154    0.79679   1.00
H1       0.60021    0.80312    0.71769   1.00
H1       0.40099    0.79162    0.79676   1.00
H1       0.59901    0.69664    0.78274   1.00
H1       0.39979    0.70848    0.70372   1.00
C5       0.47772    0.70006    0.69409   1.00
H1       0.52691    0.69672    0.78280   1.00
H2       0.45744    0.69308    0.66980   1.00
H2       0.50269    0.71576    0.68068   1.00
H2       0.54256    0.82767    0.68967   1.00
H2       0.49731    0.80281    0.69353   1.00
N1       0.49143    0.66395    0.71232   1.00
C6       0.46927    0.63556    0.72725   1.00
C6       0.52846    0.65256    0.71620   1.00
C6       0.49241    0.60590    0.74133   1.00
C6       0.53005    0.61670    0.73430   1.00
H3       0.43803    0.63638    0.72825   1.00
H3       0.55300    0.66941    0.70676   1.00
H3       0.48287    0.57934    0.75515   1.00
H3       0.55575    0.60028    0.74158   1.00
N1       0.50857    0.84327    0.73879   1.00
C6       0.47154    0.85305    0.74580   1.00
C6       0.53073    0.86613    0.76129   1.00
C6       0.46995    0.88215    0.77348   1.00
C6       0.50759    0.89046    0.78334   1.00
H3       0.44700    0.83965    0.73189   1.00
H3       0.56197    0.86506    0.76201   1.00
H3       0.44425    0.89577    0.78520   1.00
H3       0.51713    0.91189    0.80424   1.00
C4       0.97915    0.75020    0.74997   1.00
C4       1.02085    0.74980    0.75003   1.00
C3a      0.95746    0.78065    0.76837   1.00
C3       1.04232    0.77306    0.72370   1.00
C3       0.95768    0.72033    0.73148   1.00
C3a      1.04254    0.72597    0.77644   1.00
C2       0.89488    0.74999    0.74992   1.00
C2       1.10512    0.74998    0.74992   1.00
C3       0.91595    0.78002    0.76811   1.00
C3       1.08363    0.77320    0.72376   1.00
C3       0.91637    0.72021    0.73158   1.00
C3       1.08405    0.72650    0.77601   1.00
C5       0.97772    0.81396    0.78909   1.00
H1       1.02691    0.79154    0.70321   1.00
H1       0.89979    0.80312    0.78231   1.00
H1       1.09901    0.79162    0.70324   1.00
H1       0.90099    0.69664    0.71726   1.00
H1       1.10021    0.70848    0.79628   1.00
C5       1.02228    0.70006    0.80591   1.00
H1       0.97309    0.69672    0.71720   1.00
H2       1.04256    0.69308    0.83020   1.00
H2       0.99731    0.71576    0.81932   1.00
H2       0.95744    0.82767    0.81033   1.00
H2       1.00269    0.80281    0.80647   1.00
N1       1.00857    0.66395    0.78768   1.00
C6       1.03073    0.63556    0.77275   1.00
C6       0.97154    0.65256    0.78380   1.00
C6       1.00759    0.60590    0.75867   1.00
C6       0.96995    0.61670    0.76570   1.00
H3       1.06197    0.63638    0.77175   1.00
H3       0.94700    0.66941    0.79324   1.00
H3       1.01713    0.57934    0.74485   1.00
H3       0.94425    0.60028    0.75842   1.00
N1       0.99143    0.84327    0.76121   1.00
C6       1.02846    0.85305    0.75420   1.00
C6       0.96927    0.86613    0.73871   1.00
C6       1.03005    0.88215    0.72652   1.00
C6       0.99241    0.89046    0.71666   1.00
H3       1.05300    0.83965    0.76811   1.00
H3       0.93803    0.86506    0.73799   1.00
H3       1.05575    0.89577    0.71480   1.00
H3       0.98287    0.91189    0.69576   1.00
C4       0.75003    0.52085    0.75020   1.00
C4       0.74997    0.47915    0.74980   1.00
C3a      0.73163    0.54254    0.78065   1.00
C3       0.77630    0.45768    0.77306   1.00
C3       0.76852    0.54232    0.72033   1.00
C3a      0.72356    0.45746    0.72597   1.00
C2       0.75008    0.60512    0.74999   1.00
C2       0.75008    0.39488    0.74998   1.00
C3       0.73189    0.58405    0.78002   1.00
C3       0.77624    0.41637    0.77320   1.00
C3       0.76842    0.58363    0.72021   1.00
C3       0.72399    0.41595    0.72650   1.00
C5       0.71091    0.52228    0.81396   1.00
H1       0.79679    0.47309    0.79154   1.00
H1       0.71769    0.60021    0.80312   1.00
H1       0.79676    0.40099    0.79162   1.00
H1       0.78274    0.59901    0.69664   1.00
H1       0.70372    0.39979    0.70848   1.00
C5       0.69409    0.47772    0.70006   1.00
H1       0.78280    0.52691    0.69672   1.00
H2       0.66980    0.45744    0.69308   1.00
H2       0.68068    0.50269    0.71576   1.00
H2       0.68967    0.54256    0.82767   1.00
H2       0.69353    0.49731    0.80281   1.00
N1       0.71232    0.49143    0.66395   1.00
C6       0.72725    0.46927    0.63556   1.00
C6       0.71620    0.52846    0.65256   1.00
C6       0.74133    0.49241    0.60590   1.00
C6       0.73430    0.53005    0.61670   1.00
H3       0.72825    0.43803    0.63638   1.00
H3       0.70676    0.55300    0.66941   1.00
H3       0.75515    0.48287    0.57934   1.00
H3       0.74158    0.55575    0.60028   1.00
N1       0.73879    0.50857    0.84327   1.00
C6       0.74580    0.47154    0.85305   1.00
C6       0.76129    0.53073    0.86613   1.00
C6       0.77348    0.46995    0.88215   1.00
C6       0.78334    0.50759    0.89046   1.00
H3       0.73189    0.44700    0.83965   1.00
H3       0.76201    0.56197    0.86506   1.00
H3       0.78520    0.44425    0.89577   1.00
H3       0.80424    0.51713    0.91189   1.00
C4       0.75020    0.75003    0.52085   1.00
C4       0.74980    0.74997    0.47915   1.00
C3a      0.78065    0.73163    0.54254   1.00
C3       0.77306    0.77630    0.45768   1.00
C3       0.72033    0.76852    0.54232   1.00
C3a      0.72597    0.72356    0.45746   1.00
C2       0.74999    0.75008    0.60512   1.00
C2       0.74998    0.75008    0.39488   1.00
C3       0.78002    0.73189    0.58405   1.00
C3       0.77320    0.77624    0.41637   1.00
C3       0.72021    0.76842    0.58363   1.00
C3       0.72650    0.72399    0.41595   1.00
C5       0.81396    0.71091    0.52228   1.00
H1       0.79154    0.79679    0.47309   1.00
H1       0.80312    0.71769    0.60021   1.00
H1       0.79162    0.79676    0.40099   1.00
H1       0.69664    0.78274    0.59901   1.00
H1       0.70848    0.70372    0.39979   1.00
C5       0.70006    0.69409    0.47772   1.00
H1       0.69672    0.78280    0.52691   1.00
H2       0.69308    0.66980    0.45744   1.00
H2       0.71576    0.68068    0.50269   1.00
H2       0.82767    0.68967    0.54256   1.00
H2       0.80281    0.69353    0.49731   1.00
N1       0.66395    0.71232    0.49143   1.00
C6       0.63556    0.72725    0.46927   1.00
C6       0.65256    0.71620    0.52846   1.00
C6       0.60590    0.74133    0.49241   1.00
C6       0.61670    0.73430    0.53005   1.00
H3       0.63638    0.72825    0.43803   1.00
H3       0.66941    0.70676    0.55300   1.00
H3       0.57934    0.75515    0.48287   1.00
H3       0.60028    0.74158    0.55575   1.00
N1       0.84327    0.73879    0.50857   1.00
C6       0.85305    0.74580    0.47154   1.00
C6       0.86613    0.76129    0.53073   1.00
C6       0.88215    0.77348    0.46995   1.00
C6       0.89046    0.78334    0.50759   1.00
H3       0.83965    0.73189    0.44700   1.00
H3       0.86506    0.76201    0.56197   1.00
H3       0.89577    0.78520    0.44425   1.00
H3       0.91189    0.80424    0.51713   1.00
C4       0.25020    0.24997    0.97915   1.00
C4       0.24980    0.25003    1.02085   1.00
C3a      0.28065    0.26837    0.95746   1.00
C3       0.27306    0.22370    1.04232   1.00
C3       0.22033    0.23148    0.95768   1.00
C3a      0.22597    0.27644    1.04254   1.00
C2       0.24999    0.24992    0.89488   1.00
C2       0.24998    0.24992    1.10512   1.00
C3       0.28002    0.26811    0.91595   1.00
C3       0.27320    0.22376    1.08363   1.00
C3       0.22021    0.23158    0.91637   1.00
C3       0.22650    0.27601    1.08405   1.00
C5       0.31396    0.28909    0.97772   1.00
H1       0.29154    0.20321    1.02691   1.00
H1       0.30312    0.28231    0.89979   1.00
H1       0.29162    0.20324    1.09901   1.00
H1       0.19664    0.21726    0.90099   1.00
H1       0.20848    0.29628    1.10021   1.00
C5       0.20006    0.30591    1.02228   1.00
H1       0.19672    0.21720    0.97309   1.00
H2       0.19308    0.33020    1.04256   1.00
H2       0.21576    0.31932    0.99731   1.00
H2       0.32767    0.31033    0.95744   1.00
H2       0.30281    0.30647    1.00269   1.00
N1       0.16395    0.28768    1.00857   1.00
C6       0.13556    0.27275    1.03073   1.00
C6       0.15256    0.28380    0.97154   1.00
C6       0.10590    0.25867    1.00759   1.00
C6       0.11670    0.26570    0.96995   1.00
H3       0.13638    0.27175    1.06197   1.00
H3       0.16941    0.29324    0.94700   1.00
H3       0.07934    0.24485    1.01713   1.00
H3       0.10028    0.25842    0.94425   1.00
N1       0.34327    0.26121    0.99143   1.00
C6       0.35305    0.25420    1.02846   1.00
C6       0.36613    0.23871    0.96927   1.00
C6       0.38215    0.22652    1.03005   1.00
C6       0.39046    0.21666    0.99241   1.00
H3       0.33965    0.26811    1.05300   1.00
H3       0.36506    0.23799    0.93803   1.00
H3       0.39577    0.21480    1.05575   1.00
H3       0.41189    0.19576    0.98287   1.00
C4       0.24997    0.47915    0.75020   1.00
C4       0.25003    0.52085    0.74980   1.00
C3a      0.26837    0.45746    0.78065   1.00
C3       0.22370    0.54232    0.77306   1.00
C3       0.23148    0.45768    0.72033   1.00
C3a      0.27644    0.54254    0.72597   1.00
C2       0.24992    0.39488    0.74999   1.00
C2       0.24992    0.60512    0.74998   1.00
C3       0.26811    0.41595    0.78002   1.00
C3       0.22376    0.58363    0.77320   1.00
C3       0.23158    0.41637    0.72021   1.00
C3       0.27601    0.58405    0.72650   1.00
C5       0.28909    0.47772    0.81396   1.00
H1       0.20321    0.52691    0.79154   1.00
H1       0.28231    0.39979    0.80312   1.00
H1       0.20324    0.59901    0.79162   1.00
H1       0.21726    0.40099    0.69664   1.00
H1       0.29628    0.60021    0.70848   1.00
C5       0.30591    0.52228    0.70006   1.00
H1       0.21720    0.47309    0.69672   1.00
H2       0.33020    0.54256    0.69308   1.00
H2       0.31932    0.49731    0.71576   1.00
H2       0.31033    0.45744    0.82767   1.00
H2       0.30647    0.50269    0.80281   1.00
N1       0.28768    0.50857    0.66395   1.00
C6       0.27275    0.53073    0.63556   1.00
C6       0.28380    0.47154    0.65256   1.00
C6       0.25867    0.50759    0.60590   1.00
C6       0.26570    0.46995    0.61670   1.00
H3       0.27175    0.56197    0.63638   1.00
H3       0.29324    0.44700    0.66941   1.00
H3       0.24485    0.51713    0.57934   1.00
H3       0.25842    0.44425    0.60028   1.00
N1       0.26121    0.49143    0.84327   1.00
C6       0.25420    0.52846    0.85305   1.00
C6       0.23871    0.46927    0.86613   1.00
C6       0.22652    0.53005    0.88215   1.00
C6       0.21666    0.49241    0.89046   1.00
H3       0.26811    0.55300    0.83965   1.00
H3       0.23799    0.43803    0.86506   1.00
H3       0.21480    0.55575    0.89577   1.00
H3       0.19576    0.48287    0.91189   1.00
C4       0.02085    0.25020    0.75003   1.00
C4       -0.02085   0.24980    0.74997   1.00
C3a      0.04254    0.28065    0.73163   1.00
C3       -0.04232   0.27306    0.77630   1.00
C3       0.04232    0.22033    0.76852   1.00
C3a      -0.04254   0.22597    0.72356   1.00
C2       0.10512    0.24999    0.75008   1.00
C2       -0.10512   0.24998    0.75008   1.00
C3       0.08405    0.28002    0.73189   1.00
C3       -0.08363   0.27320    0.77624   1.00
C3       0.08363    0.22021    0.76842   1.00
C3       -0.08405   0.22650    0.72399   1.00
C5       0.02228    0.31396    0.71091   1.00
H1       -0.02691   0.29154    0.79679   1.00
H1       0.10021    0.30312    0.71769   1.00
H1       -0.09901   0.29162    0.79676   1.00
H1       0.09901    0.19664    0.78274   1.00
H1       -0.10021   0.20848    0.70372   1.00
C5       -0.02228   0.20006    0.69409   1.00
H1       0.02691    0.19672    0.78280   1.00
H2       -0.04256   0.19308    0.66980   1.00
H2       0.00269    0.21576    0.68068   1.00
H2       0.04256    0.32767    0.68967   1.00
H2       -0.00269   0.30281    0.69353   1.00
N1       -0.00857   0.16395    0.71232   1.00
C6       -0.03073   0.13556    0.72725   1.00
C6       0.02846    0.15256    0.71620   1.00
C6       -0.00759   0.10590    0.74133   1.00
C6       0.03005    0.11670    0.73430   1.00
H3       -0.06197   0.13638    0.72825   1.00
H3       0.05300    0.16941    0.70676   1.00
H3       -0.01713   0.07934    0.75515   1.00
H3       0.05575    0.10028    0.74158   1.00
N1       0.00857    0.34327    0.73879   1.00
C6       -0.02846   0.35305    0.74580   1.00
C6       0.03073    0.36613    0.76129   1.00
C6       -0.03005   0.38215    0.77348   1.00
C6       0.00759    0.39046    0.78334   1.00
H3       -0.05300   0.33965    0.73189   1.00
H3       0.06197    0.36506    0.76201   1.00
H3       -0.05575   0.39577    0.78520   1.00
H3       0.01713    0.41189    0.80424   1.00
C4       0.47915    0.25020    0.74997   1.00
C4       0.52085    0.24980    0.75003   1.00
C3a      0.45746    0.28065    0.76837   1.00
C3       0.54232    0.27306    0.72370   1.00
C3       0.45768    0.22033    0.73148   1.00
C3a      0.54254    0.22597    0.77644   1.00
C2       0.39488    0.24999    0.74992   1.00
C2       0.60512    0.24998    0.74992   1.00
C3       0.41595    0.28002    0.76811   1.00
C3       0.58363    0.27320    0.72376   1.00
C3       0.41637    0.22021    0.73158   1.00
C3       0.58405    0.22650    0.77601   1.00
C5       0.47772    0.31396    0.78909   1.00
H1       0.52691    0.29154    0.70321   1.00
H1       0.39979    0.30312    0.78231   1.00
H1       0.59901    0.29162    0.70324   1.00
H1       0.40099    0.19664    0.71726   1.00
H1       0.60021    0.20848    0.79628   1.00
C5       0.52228    0.20006    0.80591   1.00
H1       0.47309    0.19672    0.71720   1.00
H2       0.54256    0.19308    0.83020   1.00
H2       0.49731    0.21576    0.81932   1.00
H2       0.45744    0.32767    0.81033   1.00
H2       0.50269    0.30281    0.80647   1.00
N1       0.50857    0.16395    0.78768   1.00
C6       0.53073    0.13556    0.77275   1.00
C6       0.47154    0.15256    0.78380   1.00
C6       0.50759    0.10590    0.75867   1.00
C6       0.46995    0.11670    0.76570   1.00
H3       0.56197    0.13638    0.77175   1.00
H3       0.44700    0.16941    0.79324   1.00
H3       0.51713    0.07934    0.74485   1.00
H3       0.44425    0.10028    0.75842   1.00
N1       0.49143    0.34327    0.76121   1.00
C6       0.52846    0.35305    0.75420   1.00
C6       0.46927    0.36613    0.73871   1.00
C6       0.53005    0.38215    0.72652   1.00
C6       0.49241    0.39046    0.71666   1.00
H3       0.55300    0.33965    0.76811   1.00
H3       0.43803    0.36506    0.73799   1.00
H3       0.55575    0.39577    0.71480   1.00
H3       0.48287    0.41189    0.69576   1.00
C4       0.25003    0.02085    0.75020   1.00
C4       0.24997    -0.02085   0.74980   1.00
C3a      0.23163    0.04254    0.78065   1.00
C3       0.27630    -0.04232   0.77306   1.00
C3       0.26852    0.04232    0.72033   1.00
C3a      0.22356    -0.04254   0.72597   1.00
C2       0.25008    0.10512    0.74999   1.00
C2       0.25008    -0.10512   0.74998   1.00
C3       0.23189    0.08405    0.78002   1.00
C3       0.27624    -0.08363   0.77320   1.00
C3       0.26842    0.08363    0.72021   1.00
C3       0.22399    -0.08405   0.72650   1.00
C5       0.21091    0.02228    0.81396   1.00
H1       0.29679    -0.02691   0.79154   1.00
H1       0.21769    0.10021    0.80312   1.00
H1       0.29676    -0.09901   0.79162   1.00
H1       0.28274    0.09901    0.69664   1.00
H1       0.20372    -0.10021   0.70848   1.00
C5       0.19409    -0.02228   0.70006   1.00
H1       0.28280    0.02691    0.69672   1.00
H2       0.16980    -0.04256   0.69308   1.00
H2       0.18068    0.00269    0.71576   1.00
H2       0.18967    0.04256    0.82767   1.00
H2       0.19353    -0.00269   0.80281   1.00
N1       0.21232    -0.00857   0.66395   1.00
C6       0.22725    -0.03073   0.63556   1.00
C6       0.21620    0.02846    0.65256   1.00
C6       0.24133    -0.00759   0.60590   1.00
C6       0.23430    0.03005    0.61670   1.00
H3       0.22825    -0.06197   0.63638   1.00
H3       0.20676    0.05300    0.66941   1.00
H3       0.25515    -0.01713   0.57934   1.00
H3       0.24158    0.05575    0.60028   1.00
N1       0.23879    0.00857    0.84327   1.00
C6       0.24580    -0.02846   0.85305   1.00
C6       0.26129    0.03073    0.86613   1.00
C6       0.27348    -0.03005   0.88215   1.00
C6       0.28334    0.00759    0.89046   1.00
H3       0.23189    -0.05300   0.83965   1.00
H3       0.26201    0.06197    0.86506   1.00
H3       0.28520    -0.05575   0.89577   1.00
H3       0.30424    0.01713    0.91189   1.00
C4       0.25020    0.25003    0.52085   1.00
C4       0.24980    0.24997    0.47915   1.00
C3a      0.28065    0.23163    0.54254   1.00
C3       0.27306    0.27630    0.45768   1.00
C3       0.22033    0.26852    0.54232   1.00
C3a      0.22597    0.22356    0.45746   1.00
C2       0.24999    0.25008    0.60512   1.00
C2       0.24998    0.25008    0.39488   1.00
C3       0.28002    0.23189    0.58405   1.00
C3       0.27320    0.27624    0.41637   1.00
C3       0.22021    0.26842    0.58363   1.00
C3       0.22650    0.22399    0.41595   1.00
C5       0.31396    0.21091    0.52228   1.00
H1       0.29154    0.29679    0.47309   1.00
H1       0.30312    0.21769    0.60021   1.00
H1       0.29162    0.29676    0.40099   1.00
H1       0.19664    0.28274    0.59901   1.00
H1       0.20848    0.20372    0.39979   1.00
C5       0.20006    0.19409    0.47772   1.00
H1       0.19672    0.28280    0.52691   1.00
H2       0.19308    0.16980    0.45744   1.00
H2       0.21576    0.18068    0.50269   1.00
H2       0.32767    0.18967    0.54256   1.00
H2       0.30281    0.19353    0.49731   1.00
N1       0.16395    0.21232    0.49143   1.00
C6       0.13556    0.22725    0.46927   1.00
C6       0.15256    0.21620    0.52846   1.00
C6       0.10590    0.24133    0.49241   1.00
C6       0.11670    0.23430    0.53005   1.00
H3       0.13638    0.22825    0.43803   1.00
H3       0.16941    0.20676    0.55300   1.00
H3       0.07934    0.25515    0.48287   1.00
H3       0.10028    0.24158    0.55575   1.00
N1       0.34327    0.23879    0.50857   1.00
C6       0.35305    0.24580    0.47154   1.00
C6       0.36613    0.26129    0.53073   1.00
C6       0.38215    0.27348    0.46995   1.00
C6       0.39046    0.28334    0.50759   1.00
H3       0.33965    0.23189    0.44700   1.00
H3       0.36506    0.26201    0.56197   1.00
H3       0.39577    0.28520    0.44425   1.00
H3       0.41189    0.30424    0.51713   1.00
C4       0.25020    0.74997    0.47915   1.00
C4       0.24980    0.75003    0.52085   1.00
C3a      0.28065    0.76837    0.45746   1.00
C3       0.27306    0.72370    0.54232   1.00
C3       0.22033    0.73148    0.45768   1.00
C3a      0.22597    0.77644    0.54254   1.00
C2       0.24999    0.74992    0.39488   1.00
C2       0.24998    0.74992    0.60512   1.00
C3       0.28002    0.76811    0.41595   1.00
C3       0.27320    0.72376    0.58363   1.00
C3       0.22021    0.73158    0.41637   1.00
C3       0.22650    0.77601    0.58405   1.00
C5       0.31396    0.78909    0.47772   1.00
H1       0.29154    0.70321    0.52691   1.00
H1       0.30312    0.78231    0.39979   1.00
H1       0.29162    0.70324    0.59901   1.00
H1       0.19664    0.71726    0.40099   1.00
H1       0.20848    0.79628    0.60021   1.00
C5       0.20006    0.80591    0.52228   1.00
H1       0.19672    0.71720    0.47309   1.00
H2       0.19308    0.83020    0.54256   1.00
H2       0.21576    0.81932    0.49731   1.00
H2       0.32767    0.81033    0.45744   1.00
H2       0.30281    0.80647    0.50269   1.00
N1       0.16395    0.78768    0.50857   1.00
C6       0.13556    0.77275    0.53073   1.00
C6       0.15256    0.78380    0.47154   1.00
C6       0.10590    0.75867    0.50759   1.00
C6       0.11670    0.76570    0.46995   1.00
H3       0.13638    0.77175    0.56197   1.00
H3       0.16941    0.79324    0.44700   1.00
H3       0.07934    0.74485    0.51713   1.00
H3       0.10028    0.75842    0.44425   1.00
N1       0.34327    0.76121    0.49143   1.00
C6       0.35305    0.75420    0.52846   1.00
C6       0.36613    0.73871    0.46927   1.00
C6       0.38215    0.72652    0.53005   1.00
C6       0.39046    0.71666    0.49241   1.00
H3       0.33965    0.76811    0.55300   1.00
H3       0.36506    0.73799    0.43803   1.00
H3       0.39577    0.71480    0.55575   1.00
H3       0.41189    0.69576    0.48287   1.00
C4       0.24997    0.97915    0.25020   1.00
C4       0.25003    1.02085    0.24980   1.00
C3a      0.26837    0.95746    0.28065   1.00
C3       0.22370    1.04232    0.27306   1.00
C3       0.23148    0.95768    0.22033   1.00
C3a      0.27644    1.04254    0.22597   1.00
C2       0.24992    0.89488    0.24999   1.00
C2       0.24992    1.10512    0.24998   1.00
C3       0.26811    0.91595    0.28002   1.00
C3       0.22376    1.08363    0.27320   1.00
C3       0.23158    0.91637    0.22021   1.00
C3       0.27601    1.08405    0.22650   1.00
C5       0.28909    0.97772    0.31396   1.00
H1       0.20321    1.02691    0.29154   1.00
H1       0.28231    0.89979    0.30312   1.00
H1       0.20324    1.09901    0.29162   1.00
H1       0.21726    0.90099    0.19664   1.00
H1       0.29628    1.10021    0.20848   1.00
C5       0.30591    1.02228    0.20006   1.00
H1       0.21720    0.97309    0.19672   1.00
H2       0.33020    1.04256    0.19308   1.00
H2       0.31932    0.99731    0.21576   1.00
H2       0.31033    0.95744    0.32767   1.00
H2       0.30647    1.00269    0.30281   1.00
N1       0.28768    1.00857    0.16395   1.00
C6       0.27275    1.03073    0.13556   1.00
C6       0.28380    0.97154    0.15256   1.00
C6       0.25867    1.00759    0.10590   1.00
C6       0.26570    0.96995    0.11670   1.00
H3       0.27175    1.06197    0.13638   1.00
H3       0.29324    0.94700    0.16941   1.00
H3       0.24485    1.01713    0.07934   1.00
H3       0.25842    0.94425    0.10028   1.00
N1       0.26121    0.99143    0.34327   1.00
C6       0.25420    1.02846    0.35305   1.00
C6       0.23871    0.96927    0.36613   1.00
C6       0.22652    1.03005    0.38215   1.00
C6       0.21666    0.99241    0.39046   1.00
H3       0.26811    1.05300    0.33965   1.00
H3       0.23799    0.93803    0.36506   1.00
H3       0.21480    1.05575    0.39577   1.00
H3       0.19576    0.98287    0.41189   1.00
C4       0.02085    0.75020    0.25003   1.00
C4       -0.02085   0.74980    0.24997   1.00
C3a      0.04254    0.78065    0.23163   1.00
C3       -0.04232   0.77306    0.27630   1.00
C3       0.04232    0.72033    0.26852   1.00
C3a      -0.04254   0.72597    0.22356   1.00
C2       0.10512    0.74999    0.25008   1.00
C2       -0.10512   0.74998    0.25008   1.00
C3       0.08405    0.78002    0.23189   1.00
C3       -0.08363   0.77320    0.27624   1.00
C3       0.08363    0.72021    0.26842   1.00
C3       -0.08405   0.72650    0.22399   1.00
C5       0.02228    0.81396    0.21091   1.00
H1       -0.02691   0.79154    0.29679   1.00
H1       0.10021    0.80312    0.21769   1.00
H1       -0.09901   0.79162    0.29676   1.00
H1       0.09901    0.69664    0.28274   1.00
H1       -0.10021   0.70848    0.20372   1.00
C5       -0.02228   0.70006    0.19409   1.00
H1       0.02691    0.69672    0.28280   1.00
H2       -0.04256   0.69308    0.16980   1.00
H2       0.00269    0.71576    0.18068   1.00
H2       0.04256    0.82767    0.18967   1.00
H2       -0.00269   0.80281    0.19353   1.00
N1       -0.00857   0.66395    0.21232   1.00
C6       -0.03073   0.63556    0.22725   1.00
C6       0.02846    0.65256    0.21620   1.00
C6       -0.00759   0.60590    0.24133   1.00
C6       0.03005    0.61670    0.23430   1.00
H3       -0.06197   0.63638    0.22825   1.00
H3       0.05300    0.66941    0.20676   1.00
H3       -0.01713   0.57934    0.25515   1.00
H3       0.05575    0.60028    0.24158   1.00
N1       0.00857    0.84327    0.23879   1.00
C6       -0.02846   0.85305    0.24580   1.00
C6       0.03073    0.86613    0.26129   1.00
C6       -0.03005   0.88215    0.27348   1.00
C6       0.00759    0.89046    0.28334   1.00
H3       -0.05300   0.83965    0.23189   1.00
H3       0.06197    0.86506    0.26201   1.00
H3       -0.05575   0.89577    0.28520   1.00
H3       0.01713    0.91189    0.30424   1.00
C4       0.47915    0.75020    0.24997   1.00
C4       0.52085    0.74980    0.25003   1.00
C3a      0.45746    0.78065    0.26837   1.00
C3       0.54232    0.77306    0.22370   1.00
C3       0.45768    0.72033    0.23148   1.00
C3a      0.54254    0.72597    0.27644   1.00
C2       0.39488    0.74999    0.24992   1.00
C2       0.60512    0.74998    0.24992   1.00
C3       0.41595    0.78002    0.26811   1.00
C3       0.58363    0.77320    0.22376   1.00
C3       0.41637    0.72021    0.23158   1.00
C3       0.58405    0.72650    0.27601   1.00
C5       0.47772    0.81396    0.28909   1.00
H1       0.52691    0.79154    0.20321   1.00
H1       0.39979    0.80312    0.28231   1.00
H1       0.59901    0.79162    0.20324   1.00
H1       0.40099    0.69664    0.21726   1.00
H1       0.60021    0.70848    0.29628   1.00
C5       0.52228    0.70006    0.30591   1.00
H1       0.47309    0.69672    0.21720   1.00
H2       0.54256    0.69308    0.33020   1.00
H2       0.49731    0.71576    0.31932   1.00
H2       0.45744    0.82767    0.31033   1.00
H2       0.50269    0.80281    0.30647   1.00
N1       0.50857    0.66395    0.28768   1.00
C6       0.53073    0.63556    0.27275   1.00
C6       0.47154    0.65256    0.28380   1.00
C6       0.50759    0.60590    0.25867   1.00
C6       0.46995    0.61670    0.26570   1.00
H3       0.56197    0.63638    0.27175   1.00
H3       0.44700    0.66941    0.29324   1.00
H3       0.51713    0.57934    0.24485   1.00
H3       0.44425    0.60028    0.25842   1.00
N1       0.49143    0.84327    0.26121   1.00
C6       0.52846    0.85305    0.25420   1.00
C6       0.46927    0.86613    0.23871   1.00
C6       0.53005    0.88215    0.22652   1.00
C6       0.49241    0.89046    0.21666   1.00
H3       0.55300    0.83965    0.26811   1.00
H3       0.43803    0.86506    0.23799   1.00
H3       0.55575    0.89577    0.21480   1.00
H3       0.48287    0.91189    0.19576   1.00
C4       0.25003    0.52085    0.25020   1.00
C4       0.24997    0.47915    0.24980   1.00
C3a      0.23163    0.54254    0.28065   1.00
C3       0.27630    0.45768    0.27306   1.00
C3       0.26852    0.54232    0.22033   1.00
C3a      0.22356    0.45746    0.22597   1.00
C2       0.25008    0.60512    0.24999   1.00
C2       0.25008    0.39488    0.24998   1.00
C3       0.23189    0.58405    0.28002   1.00
C3       0.27624    0.41637    0.27320   1.00
C3       0.26842    0.58363    0.22021   1.00
C3       0.22399    0.41595    0.22650   1.00
C5       0.21091    0.52228    0.31396   1.00
H1       0.29679    0.47309    0.29154   1.00
H1       0.21769    0.60021    0.30312   1.00
H1       0.29676    0.40099    0.29162   1.00
H1       0.28274    0.59901    0.19664   1.00
H1       0.20372    0.39979    0.20848   1.00
C5       0.19409    0.47772    0.20006   1.00
H1       0.28280    0.52691    0.19672   1.00
H2       0.16980    0.45744    0.19308   1.00
H2       0.18068    0.50269    0.21576   1.00
H2       0.18967    0.54256    0.32767   1.00
H2       0.19353    0.49731    0.30281   1.00
N1       0.21232    0.49143    0.16395   1.00
C6       0.22725    0.46927    0.13556   1.00
C6       0.21620    0.52846    0.15256   1.00
C6       0.24133    0.49241    0.10590   1.00
C6       0.23430    0.53005    0.11670   1.00
H3       0.22825    0.43803    0.13638   1.00
H3       0.20676    0.55300    0.16941   1.00
H3       0.25515    0.48287    0.07934   1.00
H3       0.24158    0.55575    0.10028   1.00
N1       0.23879    0.50857    0.34327   1.00
C6       0.24580    0.47154    0.35305   1.00
C6       0.26129    0.53073    0.36613   1.00
C6       0.27348    0.46995    0.38215   1.00
C6       0.28334    0.50759    0.39046   1.00
H3       0.23189    0.44700    0.33965   1.00
H3       0.26201    0.56197    0.36506   1.00
H3       0.28520    0.44425    0.39577   1.00
H3       0.30424    0.51713    0.41189   1.00
C4       0.25020    0.75003    0.02085   1.00
C4       0.24980    0.74997    -0.02085   1.00
C3a      0.28065    0.73163    0.04254   1.00
C3       0.27306    0.77630    -0.04232   1.00
C3       0.22033    0.76852    0.04232   1.00
C3a      0.22597    0.72356    -0.04254   1.00
C2       0.24999    0.75008    0.10512   1.00
C2       0.24998    0.75008    -0.10512   1.00
C3       0.28002    0.73189    0.08405   1.00
C3       0.27320    0.77624    -0.08363   1.00
C3       0.22021    0.76842    0.08363   1.00
C3       0.22650    0.72399    -0.08405   1.00
C5       0.31396    0.71091    0.02228   1.00
H1       0.29154    0.79679    -0.02691   1.00
H1       0.30312    0.71769    0.10021   1.00
H1       0.29162    0.79676    -0.09901   1.00
H1       0.19664    0.78274    0.09901   1.00
H1       0.20848    0.70372    -0.10021   1.00
C5       0.20006    0.69409    -0.02228   1.00
H1       0.19672    0.78280    0.02691   1.00
H2       0.19308    0.66980    -0.04256   1.00
H2       0.21576    0.68068    0.00269   1.00
H2       0.32767    0.68967    0.04256   1.00
H2       0.30281    0.69353    -0.00269   1.00
N1       0.16395    0.71232    -0.00857   1.00
C6       0.13556    0.72725    -0.03073   1.00
C6       0.15256    0.71620    0.02846   1.00
C6       0.10590    0.74133    -0.00759   1.00
C6       0.11670    0.73430    0.03005   1.00
H3       0.13638    0.72825    -0.06197   1.00
H3       0.16941    0.70676    0.05300   1.00
H3       0.07934    0.75515    -0.01713   1.00
H3       0.10028    0.74158    0.05575   1.00
N1       0.34327    0.73879    0.00857   1.00
C6       0.35305    0.74580    -0.02846   1.00
C6       0.36613    0.76129    0.03073   1.00
C6       0.38215    0.77348    -0.03005   1.00
C6       0.39046    0.78334    0.00759   1.00
H3       0.33965    0.73189    -0.05300   1.00
H3       0.36506    0.76201    0.06197   1.00
H3       0.39577    0.78520    -0.05575   1.00
H3       0.41189    0.80424    0.01713   1.00
C4       0.75020    0.24997    0.47915   1.00
C4       0.74980    0.25003    0.52085   1.00
C3a      0.78065    0.26837    0.45746   1.00
C3       0.77306    0.22370    0.54232   1.00
C3       0.72033    0.23148    0.45768   1.00
C3a      0.72597    0.27644    0.54254   1.00
C2       0.74999    0.24992    0.39488   1.00
C2       0.74998    0.24992    0.60512   1.00
C3       0.78002    0.26811    0.41595   1.00
C3       0.77320    0.22376    0.58363   1.00
C3       0.72021    0.23158    0.41637   1.00
C3       0.72650    0.27601    0.58405   1.00
C5       0.81396    0.28909    0.47772   1.00
H1       0.79154    0.20321    0.52691   1.00
H1       0.80312    0.28231    0.39979   1.00
H1       0.79162    0.20324    0.59901   1.00
H1       0.69664    0.21726    0.40099   1.00
H1       0.70848    0.29628    0.60021   1.00
C5       0.70006    0.30591    0.52228   1.00
H1       0.69672    0.21720    0.47309   1.00
H2       0.69308    0.33020    0.54256   1.00
H2       0.71576    0.31932    0.49731   1.00
H2       0.82767    0.31033    0.45744   1.00
H2       0.80281    0.30647    0.50269   1.00
N1       0.66395    0.28768    0.50857   1.00
C6       0.63556    0.27275    0.53073   1.00
C6       0.65256    0.28380    0.47154   1.00
C6       0.60590    0.25867    0.50759   1.00
C6       0.61670    0.26570    0.46995   1.00
H3       0.63638    0.27175    0.56197   1.00
H3       0.66941    0.29324    0.44700   1.00
H3       0.57934    0.24485    0.51713   1.00
H3       0.60028    0.25842    0.44425   1.00
N1       0.84327    0.26121    0.49143   1.00
C6       0.85305    0.25420    0.52846   1.00
C6       0.86613    0.23871    0.46927   1.00
C6       0.88215    0.22652    0.53005   1.00
C6       0.89046    0.21666    0.49241   1.00
H3       0.83965    0.26811    0.55300   1.00
H3       0.86506    0.23799    0.43803   1.00
H3       0.89577    0.21480    0.55575   1.00
H3       0.91189    0.19576    0.48287   1.00
C4       0.74997    0.47915    0.25020   1.00
C4       0.75003    0.52085    0.24980   1.00
C3a      0.76837    0.45746    0.28065   1.00
C3       0.72370    0.54232    0.27306   1.00
C3       0.73148    0.45768    0.22033   1.00
C3a      0.77644    0.54254    0.22597   1.00
C2       0.74992    0.39488    0.24999   1.00
C2       0.74992    0.60512    0.24998   1.00
C3       0.76811    0.41595    0.28002   1.00
C3       0.72376    0.58363    0.27320   1.00
C3       0.73158    0.41637    0.22021   1.00
C3       0.77601    0.58405    0.22650   1.00
C5       0.78909    0.47772    0.31396   1.00
H1       0.70321    0.52691    0.29154   1.00
H1       0.78231    0.39979    0.30312   1.00
H1       0.70324    0.59901    0.29162   1.00
H1       0.71726    0.40099    0.19664   1.00
H1       0.79628    0.60021    0.20848   1.00
C5       0.80591    0.52228    0.20006   1.00
H1       0.71720    0.47309    0.19672   1.00
H2       0.83020    0.54256    0.19308   1.00
H2       0.81932    0.49731    0.21576   1.00
H2       0.81033    0.45744    0.32767   1.00
H2       0.80647    0.50269    0.30281   1.00
N1       0.78768    0.50857    0.16395   1.00
C6       0.77275    0.53073    0.13556   1.00
C6       0.78380    0.47154    0.15256   1.00
C6       0.75867    0.50759    0.10590   1.00
C6       0.76570    0.46995    0.11670   1.00
H3       0.77175    0.56197    0.13638   1.00
H3       0.79324    0.44700    0.16941   1.00
H3       0.74485    0.51713    0.07934   1.00
H3       0.75842    0.44425    0.10028   1.00
N1       0.76121    0.49143    0.34327   1.00
C6       0.75420    0.52846    0.35305   1.00
C6       0.73871    0.46927    0.36613   1.00
C6       0.72652    0.53005    0.38215   1.00
C6       0.71666    0.49241    0.39046   1.00
H3       0.76811    0.55300    0.33965   1.00
H3       0.73799    0.43803    0.36506   1.00
H3       0.71480    0.55575    0.39577   1.00
H3       0.69576    0.48287    0.41189   1.00
C4       0.52085    0.25020    0.25003   1.00
C4       0.47915    0.24980    0.24997   1.00
C3a      0.54254    0.28065    0.23163   1.00
C3       0.45768    0.27306    0.27630   1.00
C3       0.54232    0.22033    0.26852   1.00
C3a      0.45746    0.22597    0.22356   1.00
C2       0.60512    0.24999    0.25008   1.00
C2       0.39488    0.24998    0.25008   1.00
C3       0.58405    0.28002    0.23189   1.00
C3       0.41637    0.27320    0.27624   1.00
C3       0.58363    0.22021    0.26842   1.00
C3       0.41595    0.22650    0.22399   1.00
C5       0.52228    0.31396    0.21091   1.00
H1       0.47309    0.29154    0.29679   1.00
H1       0.60021    0.30312    0.21769   1.00
H1       0.40099    0.29162    0.29676   1.00
H1       0.59901    0.19664    0.28274   1.00
H1       0.39979    0.20848    0.20372   1.00
C5       0.47772    0.20006    0.19409   1.00
H1       0.52691    0.19672    0.28280   1.00
H2       0.45744    0.19308    0.16980   1.00
H2       0.50269    0.21576    0.18068   1.00
H2       0.54256    0.32767    0.18967   1.00
H2       0.49731    0.30281    0.19353   1.00
N1       0.49143    0.16395    0.21232   1.00
C6       0.46927    0.13556    0.22725   1.00
C6       0.52846    0.15256    0.21620   1.00
C6       0.49241    0.10590    0.24133   1.00
C6       0.53005    0.11670    0.23430   1.00
H3       0.43803    0.13638    0.22825   1.00
H3       0.55300    0.16941    0.20676   1.00
H3       0.48287    0.07934    0.25515   1.00
H3       0.55575    0.10028    0.24158   1.00
N1       0.50857    0.34327    0.23879   1.00
C6       0.47154    0.35305    0.24580   1.00
C6       0.53073    0.36613    0.26129   1.00
C6       0.46995    0.38215    0.27348   1.00
C6       0.50759    0.39046    0.28334   1.00
H3       0.44700    0.33965    0.23189   1.00
H3       0.56197    0.36506    0.26201   1.00
H3       0.44425    0.39577    0.28520   1.00
H3       0.51713    0.41189    0.30424   1.00
C4       0.97915    0.25020    0.24997   1.00
C4       1.02085    0.24980    0.25003   1.00
C3a      0.95746    0.28065    0.26837   1.00
C3       1.04232    0.27306    0.22370   1.00
C3       0.95768    0.22033    0.23148   1.00
C3a      1.04254    0.22597    0.27644   1.00
C2       0.89488    0.24999    0.24992   1.00
C2       1.10512    0.24998    0.24992   1.00
C3       0.91595    0.28002    0.26811   1.00
C3       1.08363    0.27320    0.22376   1.00
C3       0.91637    0.22021    0.23158   1.00
C3       1.08405    0.22650    0.27601   1.00
C5       0.97772    0.31396    0.28909   1.00
H1       1.02691    0.29154    0.20321   1.00
H1       0.89979    0.30312    0.28231   1.00
H1       1.09901    0.29162    0.20324   1.00
H1       0.90099    0.19664    0.21726   1.00
H1       1.10021    0.20848    0.29628   1.00
C5       1.02228    0.20006    0.30591   1.00
H1       0.97309    0.19672    0.21720   1.00
H2       1.04256    0.19308    0.33020   1.00
H2       0.99731    0.21576    0.31932   1.00
H2       0.95744    0.32767    0.31033   1.00
H2       1.00269    0.30281    0.30647   1.00
N1       1.00857    0.16395    0.28768   1.00
C6       1.03073    0.13556    0.27275   1.00
C6       0.97154    0.15256    0.28380   1.00
C6       1.00759    0.10590    0.25867   1.00
C6       0.96995    0.11670    0.26570   1.00
H3       1.06197    0.13638    0.27175   1.00
H3       0.94700    0.16941    0.29324   1.00
H3       1.01713    0.07934    0.24485   1.00
H3       0.94425    0.10028    0.25842   1.00
N1       0.99143    0.34327    0.26121   1.00
C6       1.02846    0.35305    0.25420   1.00
C6       0.96927    0.36613    0.23871   1.00
C6       1.03005    0.38215    0.22652   1.00
C6       0.99241    0.39046    0.21666   1.00
H3       1.05300    0.33965    0.26811   1.00
H3       0.93803    0.36506    0.23799   1.00
H3       1.05575    0.39577    0.21480   1.00
H3       0.98287    0.41189    0.19576   1.00
C4       0.75003    0.02085    0.25020   1.00
C4       0.74997    -0.02085   0.24980   1.00
C3a      0.73163    0.04254    0.28065   1.00
C3       0.77630    -0.04232   0.27306   1.00
C3       0.76852    0.04232    0.22033   1.00
C3a      0.72356    -0.04254   0.22597   1.00
C2       0.75008    0.10512    0.24999   1.00
C2       0.75008    -0.10512   0.24998   1.00
C3       0.73189    0.08405    0.28002   1.00
C3       0.77624    -0.08363   0.27320   1.00
C3       0.76842    0.08363    0.22021   1.00
C3       0.72399    -0.08405   0.22650   1.00
C5       0.71091    0.02228    0.31396   1.00
H1       0.79679    -0.02691   0.29154   1.00
H1       0.71769    0.10021    0.30312   1.00
H1       0.79676    -0.09901   0.29162   1.00
H1       0.78274    0.09901    0.19664   1.00
H1       0.70372    -0.10021   0.20848   1.00
C5       0.69409    -0.02228   0.20006   1.00
H1       0.78280    0.02691    0.19672   1.00
H2       0.66980    -0.04256   0.19308   1.00
H2       0.68068    0.00269    0.21576   1.00
H2       0.68967    0.04256    0.32767   1.00
H2       0.69353    -0.00269   0.30281   1.00
N1       0.71232    -0.00857   0.16395   1.00
C6       0.72725    -0.03073   0.13556   1.00
C6       0.71620    0.02846    0.15256   1.00
C6       0.74133    -0.00759   0.10590   1.00
C6       0.73430    0.03005    0.11670   1.00
H3       0.72825    -0.06197   0.13638   1.00
H3       0.70676    0.05300    0.16941   1.00
H3       0.75515    -0.01713   0.07934   1.00
H3       0.74158    0.05575    0.10028   1.00
N1       0.73879    0.00857    0.34327   1.00
C6       0.74580    -0.02846   0.35305   1.00
C6       0.76129    0.03073    0.36613   1.00
C6       0.77348    -0.03005   0.38215   1.00
C6       0.78334    0.00759    0.39046   1.00
H3       0.73189    -0.05300   0.33965   1.00
H3       0.76201    0.06197    0.36506   1.00
H3       0.78520    -0.05575   0.39577   1.00
H3       0.80424    0.01713    0.41189   1.00
C4       0.75020    0.25003    0.02085   1.00
C4       0.74980    0.24997    -0.02085   1.00
C3a      0.78065    0.23163    0.04254   1.00
C3       0.77306    0.27630    -0.04232   1.00
C3       0.72033    0.26852    0.04232   1.00
C3a      0.72597    0.22356    -0.04254   1.00
C2       0.74999    0.25008    0.10512   1.00
C2       0.74998    0.25008    -0.10512   1.00
C3       0.78002    0.23189    0.08405   1.00
C3       0.77320    0.27624    -0.08363   1.00
C3       0.72021    0.26842    0.08363   1.00
C3       0.72650    0.22399    -0.08405   1.00
C5       0.81396    0.21091    0.02228   1.00
H1       0.79154    0.29679    -0.02691   1.00
H1       0.80312    0.21769    0.10021   1.00
H1       0.79162    0.29676    -0.09901   1.00
H1       0.69664    0.28274    0.09901   1.00
H1       0.70848    0.20372    -0.10021   1.00
C5       0.70006    0.19409    -0.02228   1.00
H1       0.69672    0.28280    0.02691   1.00
H2       0.69308    0.16980    -0.04256   1.00
H2       0.71576    0.18068    0.00269   1.00
H2       0.82767    0.18967    0.04256   1.00
H2       0.80281    0.19353    -0.00269   1.00
N1       0.66395    0.21232    -0.00857   1.00
C6       0.63556    0.22725    -0.03073   1.00
C6       0.65256    0.21620    0.02846   1.00
C6       0.60590    0.24133    -0.00759   1.00
C6       0.61670    0.23430    0.03005   1.00
H3       0.63638    0.22825    -0.06197   1.00
H3       0.66941    0.20676    0.05300   1.00
H3       0.57934    0.25515    -0.01713   1.00
H3       0.60028    0.24158    0.05575   1.00
N1       0.84327    0.23879    0.00857   1.00
C6       0.85305    0.24580    -0.02846   1.00
C6       0.86613    0.26129    0.03073   1.00
C6       0.88215    0.27348    -0.03005   1.00
C6       0.89046    0.28334    0.00759   1.00
H3       0.83965    0.23189    -0.05300   1.00
H3       0.86506    0.26201    0.06197   1.00
H3       0.89577    0.28520    -0.05575   1.00
H3       0.91189    0.30424    0.01713   1.00
C4       1.00020    0.99997    1.22915   1.00
C4       0.99980    1.00003    1.27085   1.00
C3a      1.03065    1.01837    1.20746   1.00
C3       1.02306    0.97370    1.29232   1.00
C3       0.97033    0.98148    1.20768   1.00
C3a      0.97597    1.02644    1.29254   1.00
C2       0.99999    0.99992    1.14488   1.00
C2       0.99998    0.99992    1.35512   1.00
C3       1.03002    1.01811    1.16595   1.00
C3       1.02320    0.97376    1.33363   1.00
C3       0.97021    0.98158    1.16637   1.00
C3       0.97650    1.02601    1.33405   1.00
C5       1.06396    1.03909    1.22772   1.00
H1       1.04154    0.95321    1.27691   1.00
H1       1.05312    1.03231    1.14979   1.00
H1       1.04162    0.95324    1.34901   1.00
H1       0.94664    0.96726    1.15099   1.00
H1       0.95848    1.04628    1.35021   1.00
C5       0.95006    1.05591    1.27228   1.00
H1       0.94672    0.96720    1.22309   1.00
H2       0.94308    1.08020    1.29256   1.00
H2       0.96576    1.06932    1.24731   1.00
H2       1.07767    1.06033    1.20744   1.00
H2       1.05281    1.05647    1.25269   1.00
N1       0.91395    1.03768    1.25857   1.00
C6       0.88556    1.02275    1.28073   1.00
C6       0.90256    1.03380    1.22154   1.00
C6       0.85590    1.00867    1.25759   1.00
C6       0.86670    1.01570    1.21995   1.00
H3       0.88638    1.02175    1.31197   1.00
H3       0.91941    1.04324    1.19700   1.00
H3       0.82934    0.99485    1.26713   1.00
H3       0.85028    1.00842    1.19425   1.00
N1       1.09327    1.01121    1.24143   1.00
C6       1.10305    1.00420    1.27846   1.00
C6       1.11613    0.98871    1.21927   1.00
C6       1.13215    0.97652    1.28005   1.00
C6       1.14046    0.96666    1.24241   1.00
H3       1.08965    1.01811    1.30300   1.00
H3       1.11506    0.98799    1.18803   1.00
H3       1.14577    0.96480    1.30575   1.00
H3       1.16189    0.94576    1.23287   1.00
C4       0.99997    1.22915    1.00020   1.00
C4       1.00003    1.27085    0.99980   1.00
C3a      1.01837    1.20746    1.03065   1.00
C3       0.97370    1.29232    1.02306   1.00
C3       0.98148    1.20768    0.97033   1.00
C3a      1.02644    1.29254    0.97597   1.00
C2       0.99992    1.14488    0.99999   1.00
C2       0.99992    1.35512    0.99998   1.00
C3       1.01811    1.16595    1.03002   1.00
C3       0.97376    1.33363    1.02320   1.00
C3       0.98158    1.16637    0.97021   1.00
C3       1.02601    1.33405    0.97650   1.00
C5       1.03909    1.22772    1.06396   1.00
H1       0.95321    1.27691    1.04154   1.00
H1       1.03231    1.14979    1.05312   1.00
H1       0.95324    1.34901    1.04162   1.00
H1       0.96726    1.15099    0.94664   1.00
H1       1.04628    1.35021    0.95848   1.00
C5       1.05591    1.27228    0.95006   1.00
H1       0.96720    1.22309    0.94672   1.00
H2       1.08020    1.29256    0.94308   1.00
H2       1.06932    1.24731    0.96576   1.00
H2       1.06033    1.20744    1.07767   1.00
H2       1.05647    1.25269    1.05281   1.00
N1       1.03768    1.25857    0.91395   1.00
C6       1.02275    1.28073    0.88556   1.00
C6       1.03380    1.22154    0.90256   1.00
C6       1.00867    1.25759    0.85590   1.00
C6       1.01570    1.21995    0.86670   1.00
H3       1.02175    1.31197    0.88638   1.00
H3       1.04324    1.19700    0.91941   1.00
H3       0.99485    1.26713    0.82934   1.00
H3       1.00842    1.19425    0.85028   1.00
N1       1.01121    1.24143    1.09327   1.00
C6       1.00420    1.27846    1.10305   1.00
C6       0.98871    1.21927    1.11613   1.00
C6       0.97652    1.28005    1.13215   1.00
C6       0.96666    1.24241    1.14046   1.00
H3       1.01811    1.30300    1.08965   1.00
H3       0.98799    1.18803    1.11506   1.00
H3       0.96480    1.30575    1.14577   1.00
H3       0.94576    1.23287    1.16189   1.00
C4       0.77085    1.00020    1.00003   1.00
C4       0.72915    0.99980    0.99997   1.00
C3a      0.79254    1.03065    0.98163   1.00
C3       0.70768    1.02306    1.02630   1.00
C3       0.79232    0.97033    1.01852   1.00
C3a      0.70746    0.97597    0.97356   1.00
C2       0.85512    0.99999    1.00008   1.00
C2       0.64488    0.99998    1.00008   1.00
C3       0.83405    1.03002    0.98189   1.00
C3       0.66637    1.02320    1.02624   1.00
C3       0.83363    0.97021    1.01842   1.00
C3       0.66595    0.97650    0.97399   1.00
C5       0.77228    1.06396    0.96091   1.00
H1       0.72309    1.04154    1.04679   1.00
H1       0.85021    1.05312    0.96769   1.00
H1       0.65099    1.04162    1.04676   1.00
H1       0.84901    0.94664    1.03274   1.00
H1       0.64979    0.95848    0.95372   1.00
C5       0.72772    0.95006    0.94409   1.00
H1       0.77691    0.94672    1.03280   1.00
H2       0.70744    0.94308    0.91980   1.00
H2       0.75269    0.96576    0.93068   1.00
H2       0.79256    1.07767    0.93967   1.00
H2       0.74731    1.05281    0.94353   1.00
N1       0.74143    0.91395    0.96232   1.00
C6       0.71927    0.88556    0.97725   1.00
C6       0.77846    0.90256    0.96620   1.00
C6       0.74241    0.85590    0.99133   1.00
C6       0.78005    0.86670    0.98430   1.00
H3       0.68803    0.88638    0.97825   1.00
H3       0.80300    0.91941    0.95676   1.00
H3       0.73287    0.82934    1.00515   1.00
H3       0.80575    0.85028    0.99158   1.00
N1       0.75857    1.09327    0.98879   1.00
C6       0.72154    1.10305    0.99580   1.00
C6       0.78073    1.11613    1.01129   1.00
C6       0.71995    1.13215    1.02348   1.00
C6       0.75759    1.14046    1.03334   1.00
H3       0.69700    1.08965    0.98189   1.00
H3       0.81197    1.11506    1.01201   1.00
H3       0.69425    1.14577    1.03520   1.00
H3       0.76713    1.16189    1.05424   1.00
C4       1.22915    1.00020    0.99997   1.00
C4       1.27085    0.99980    1.00003   1.00
C3a      1.20746    1.03065    1.01837   1.00
C3       1.29232    1.02306    0.97370   1.00
C3       1.20768    0.97033    0.98148   1.00
C3a      1.29254    0.97597    1.02644   1.00
C2       1.14488    0.99999    0.99992   1.00
C2       1.35512    0.99998    0.99992   1.00
C3       1.16595    1.03002    1.01811   1.00
C3       1.33363    1.02320    0.97376   1.00
C3       1.16637    0.97021    0.98158   1.00
C3       1.33405    0.97650    1.02601   1.00
C5       1.22772    1.06396    1.03909   1.00
H1       1.27691    1.04154    0.95321   1.00
H1       1.14979    1.05312    1.03231   1.00
H1       1.34901    1.04162    0.95324   1.00
H1       1.15099    0.94664    0.96726   1.00
H1       1.35021    0.95848    1.04628   1.00
C5       1.27228    0.95006    1.05591   1.00
H1       1.22309    0.94672    0.96720   1.00
H2       1.29256    0.94308    1.08020   1.00
H2       1.24731    0.96576    1.06932   1.00
H2       1.20744    1.07767    1.06033   1.00
H2       1.25269    1.05281    1.05647   1.00
N1       1.25857    0.91395    1.03768   1.00
C6       1.28073    0.88556    1.02275   1.00
C6       1.22154    0.90256    1.03380   1.00
C6       1.25759    0.85590    1.00867   1.00
C6       1.21995    0.86670    1.01570   1.00
H3       1.31197    0.88638    1.02175   1.00
H3       1.19700    0.91941    1.04324   1.00
H3       1.26713    0.82934    0.99485   1.00
H3       1.19425    0.85028    1.00842   1.00
N1       1.24143    1.09327    1.01121   1.00
C6       1.27846    1.10305    1.00420   1.00
C6       1.21927    1.11613    0.98871   1.00
C6       1.28005    1.13215    0.97652   1.00
C6       1.24241    1.14046    0.96666   1.00
H3       1.30300    1.08965    1.01811   1.00
H3       1.18803    1.11506    0.98799   1.00
H3       1.30575    1.14577    0.96480   1.00
H3       1.23287    1.16189    0.94576   1.00
C4       1.00003    0.77085    1.00020   1.00
C4       0.99997    0.72915    0.99980   1.00
C3a      0.98163    0.79254    1.03065   1.00
C3       1.02630    0.70768    1.02306   1.00
C3       1.01852    0.79232    0.97033   1.00
C3a      0.97356    0.70746    0.97597   1.00
C2       1.00008    0.85512    0.99999   1.00
C2       1.00008    0.64488    0.99998   1.00
C3       0.98189    0.83405    1.03002   1.00
C3       1.02624    0.66637    1.02320   1.00
C3       1.01842    0.83363    0.97021   1.00
C3       0.97399    0.66595    0.97650   1.00
C5       0.96091    0.77228    1.06396   1.00
H1       1.04679    0.72309    1.04154   1.00
H1       0.96769    0.85021    1.05312   1.00
H1       1.04676    0.65099    1.04162   1.00
H1       1.03274    0.84901    0.94664   1.00
H1       0.95372    0.64979    0.95848   1.00
C5       0.94409    0.72772    0.95006   1.00
H1       1.03280    0.77691    0.94672   1.00
H2       0.91980    0.70744    0.94308   1.00
H2       0.93068    0.75269    0.96576   1.00
H2       0.93967    0.79256    1.07767   1.00
H2       0.94353    0.74731    1.05281   1.00
N1       0.96232    0.74143    0.91395   1.00
C6       0.97725    0.71927    0.88556   1.00
C6       0.96620    0.77846    0.90256   1.00
C6       0.99133    0.74241    0.85590   1.00
C6       0.98430    0.78005    0.86670   1.00
H3       0.97825    0.68803    0.88638   1.00
H3       0.95676    0.80300    0.91941   1.00
H3       1.00515    0.73287    0.82934   1.00
H3       0.99158    0.80575    0.85028   1.00
N1       0.98879    0.75857    1.09327   1.00
C6       0.99580    0.72154    1.10305   1.00
C6       1.01129    0.78073    1.11613   1.00
C6       1.02348    0.71995    1.13215   1.00
C6       1.03334    0.75759    1.14046   1.00
H3       0.98189    0.69700    1.08965   1.00
H3       1.01201    0.81197    1.11506   1.00
H3       1.03520    0.69425    1.14577   1.00
H3       1.05424    0.76713    1.16189   1.00
C4       1.00020    1.00003    0.77085   1.00
C4       0.99980    0.99997    0.72915   1.00
C3a      1.03065    0.98163    0.79254   1.00
C3       1.02306    1.02630    0.70768   1.00
C3       0.97033    1.01852    0.79232   1.00
C3a      0.97597    0.97356    0.70746   1.00
C2       0.99999    1.00008    0.85512   1.00
C2       0.99998    1.00008    0.64488   1.00
C3       1.03002    0.98189    0.83405   1.00
C3       1.02320    1.02624    0.66637   1.00
C3       0.97021    1.01842    0.83363   1.00
C3       0.97650    0.97399    0.66595   1.00
C5       1.06396    0.96091    0.77228   1.00
H1       1.04154    1.04679    0.72309   1.00
H1       1.05312    0.96769    0.85021   1.00
H1       1.04162    1.04676    0.65099   1.00
H1       0.94664    1.03274    0.84901   1.00
H1       0.95848    0.95372    0.64979   1.00
C5       0.95006    0.94409    0.72772   1.00
H1       0.94672    1.03280    0.77691   1.00
H2       0.94308    0.91980    0.70744   1.00
H2       0.96576    0.93068    0.75269   1.00
H2       1.07767    0.93967    0.79256   1.00
H2       1.05281    0.94353    0.74731   1.00
N1       0.91395    0.96232    0.74143   1.00
C6       0.88556    0.97725    0.71927   1.00
C6       0.90256    0.96620    0.77846   1.00
C6       0.85590    0.99133    0.74241   1.00
C6       0.86670    0.98430    0.78005   1.00
H3       0.88638    0.97825    0.68803   1.00
H3       0.91941    0.95676    0.80300   1.00
H3       0.82934    1.00515    0.73287   1.00
H3       0.85028    0.99158    0.80575   1.00
N1       1.09327    0.98879    0.75857   1.00
C6       1.10305    0.99580    0.72154   1.00
C6       1.11613    1.01129    0.78073   1.00
C6       1.13215    1.02348    0.71995   1.00
C6       1.14046    1.03334    0.75759   1.00
H3       1.08965    0.98189    0.69700   1.00
H3       1.11506    1.01201    0.81197   1.00
H3       1.14577    1.03520    0.69425   1.00
H3       1.16189    1.05424    0.76713   1.00
C4       0.50020    0.49997    1.22915   1.00
C4       0.49980    0.50003    1.27085   1.00
C3a      0.53065    0.51837    1.20746   1.00
C3       0.52306    0.47370    1.29232   1.00
C3       0.47033    0.48148    1.20768   1.00
C3a      0.47597    0.52644    1.29254   1.00
C2       0.49999    0.49992    1.14488   1.00
C2       0.49998    0.49992    1.35512   1.00
C3       0.53002    0.51811    1.16595   1.00
C3       0.52320    0.47376    1.33363   1.00
C3       0.47021    0.48158    1.16637   1.00
C3       0.47650    0.52601    1.33405   1.00
C5       0.56396    0.53909    1.22772   1.00
H1       0.54154    0.45321    1.27691   1.00
H1       0.55312    0.53231    1.14979   1.00
H1       0.54162    0.45324    1.34901   1.00
H1       0.44664    0.46726    1.15099   1.00
H1       0.45848    0.54628    1.35021   1.00
C5       0.45006    0.55591    1.27228   1.00
H1       0.44672    0.46720    1.22309   1.00
H2       0.44308    0.58020    1.29256   1.00
H2       0.46576    0.56932    1.24731   1.00
H2       0.57767    0.56033    1.20744   1.00
H2       0.55281    0.55647    1.25269   1.00
N1       0.41395    0.53768    1.25857   1.00
C6       0.38556    0.52275    1.28073   1.00
C6       0.40256    0.53380    1.22154   1.00
C6       0.35590    0.50867    1.25759   1.00
C6       0.36670    0.51570    1.21995   1.00
H3       0.38638    0.52175    1.31197   1.00
H3       0.41941    0.54324    1.19700   1.00
H3       0.32934    0.49485    1.26713   1.00
H3       0.35028    0.50842    1.19425   1.00
N1       0.59327    0.51121    1.24143   1.00
C6       0.60305    0.50420    1.27846   1.00
C6       0.61613    0.48871    1.21927   1.00
C6       0.63215    0.47652    1.28005   1.00
C6       0.64046    0.46666    1.24241   1.00
H3       0.58965    0.51811    1.30300   1.00
H3       0.61506    0.48799    1.18803   1.00
H3       0.64577    0.46480    1.30575   1.00
H3       0.66189    0.44576    1.23287   1.00
C4       0.49997    0.72915    1.00020   1.00
C4       0.50003    0.77085    0.99980   1.00
C3a      0.51837    0.70746    1.03065   1.00
C3       0.47370    0.79232    1.02306   1.00
C3       0.48148    0.70768    0.97033   1.00
C3a      0.52644    0.79254    0.97597   1.00
C2       0.49992    0.64488    0.99999   1.00
C2       0.49992    0.85512    0.99998   1.00
C3       0.51811    0.66595    1.03002   1.00
C3       0.47376    0.83363    1.02320   1.00
C3       0.48158    0.66637    0.97021   1.00
C3       0.52601    0.83405    0.97650   1.00
C5       0.53909    0.72772    1.06396   1.00
H1       0.45321    0.77691    1.04154   1.00
H1       0.53231    0.64979    1.05312   1.00
H1       0.45324    0.84901    1.04162   1.00
H1       0.46726    0.65099    0.94664   1.00
H1       0.54628    0.85021    0.95848   1.00
C5       0.55591    0.77228    0.95006   1.00
H1       0.46720    0.72309    0.94672   1.00
H2       0.58020    0.79256    0.94308   1.00
H2       0.56932    0.74731    0.96576   1.00
H2       0.56033    0.70744    1.07767   1.00
H2       0.55647    0.75269    1.05281   1.00
N1       0.53768    0.75857    0.91395   1.00
C6       0.52275    0.78073    0.88556   1.00
C6       0.53380    0.72154    0.90256   1.00
C6       0.50867    0.75759    0.85590   1.00
C6       0.51570    0.71995    0.86670   1.00
H3       0.52175    0.81197    0.88638   1.00
H3       0.54324    0.69700    0.91941   1.00
H3       0.49485    0.76713    0.82934   1.00
H3       0.50842    0.69425    0.85028   1.00
N1       0.51121    0.74143    1.09327   1.00
C6       0.50420    0.77846    1.10305   1.00
C6       0.48871    0.71927    1.11613   1.00
C6       0.47652    0.78005    1.13215   1.00
C6       0.46666    0.74241    1.14046   1.00
H3       0.51811    0.80300    1.08965   1.00
H3       0.48799    0.68803    1.11506   1.00
H3       0.46480    0.80575    1.14577   1.00
H3       0.44576    0.73287    1.16189   1.00
C4       0.27085    0.50020    1.00003   1.00
C4       0.22915    0.49980    0.99997   1.00
C3a      0.29254    0.53065    0.98163   1.00
C3       0.20768    0.52306    1.02630   1.00
C3       0.29232    0.47033    1.01852   1.00
C3a      0.20746    0.47597    0.97356   1.00
C2       0.35512    0.49999    1.00008   1.00
C2       0.14488    0.49998    1.00008   1.00
C3       0.33405    0.53002    0.98189   1.00
C3       0.16637    0.52320    1.02624   1.00
C3       0.33363    0.47021    1.01842   1.00
C3       0.16595    0.47650    0.97399   1.00
C5       0.27228    0.56396    0.96091   1.00
H1       0.22309    0.54154    1.04679   1.00
H1       0.35021    0.55312    0.96769   1.00
H1       0.15099    0.54162    1.04676   1.00
H1       0.34901    0.44664    1.03274   1.00
H1       0.14979    0.45848    0.95372   1.00
C5       0.22772    0.45006    0.94409   1.00
H1       0.27691    0.44672    1.03280   1.00
H2       0.20744    0.44308    0.91980   1.00
H2       0.25269    0.46576    0.93068   1.00
H2       0.29256    0.57767    0.93967   1.00
H2       0.24731    0.55281    0.94353   1.00
N1       0.24143    0.41395    0.96232   1.00
C6       0.21927    0.38556    0.97725   1.00
C6       0.27846    0.40256    0.96620   1.00
C6       0.24241    0.35590    0.99133   1.00
C6       0.28005    0.36670    0.98430   1.00
H3       0.18803    0.38638    0.97825   1.00
H3       0.30300    0.41941    0.95676   1.00
H3       0.23287    0.32934    1.00515   1.00
H3       0.30575    0.35028    0.99158   1.00
N1       0.25857    0.59327    0.98879   1.00
C6       0.22154    0.60305    0.99580   1.00
C6       0.28073    0.61613    1.01129   1.00
C6       0.21995    0.63215    1.02348   1.00
C6       0.25759    0.64046    1.03334   1.00
H3       0.19700    0.58965    0.98189   1.00
H3       0.31197    0.61506    1.01201   1.00
H3       0.19425    0.64577    1.03520   1.00
H3       0.26713    0.66189    1.05424   1.00
C4       0.72915    0.50020    0.99997   1.00
C4       0.77085    0.49980    1.00003   1.00
C3a      0.70746    0.53065    1.01837   1.00
C3       0.79232    0.52306    0.97370   1.00
C3       0.70768    0.47033    0.98148   1.00
C3a      0.79254    0.47597    1.02644   1.00
C2       0.64488    0.49999    0.99992   1.00
C2       0.85512    0.49998    0.99992   1.00
C3       0.66595    0.53002    1.01811   1.00
C3       0.83363    0.52320    0.97376   1.00
C3       0.66637    0.47021    0.98158   1.00
C3       0.83405    0.47650    1.02601   1.00
C5       0.72772    0.56396    1.03909   1.00
H1       0.77691    0.54154    0.95321   1.00
H1       0.64979    0.55312    1.03231   1.00
H1       0.84901    0.54162    0.95324   1.00
H1       0.65099    0.44664    0.96726   1.00
H1       0.85021    0.45848    1.04628   1.00
C5       0.77228    0.45006    1.05591   1.00
H1       0.72309    0.44672    0.96720   1.00
H2       0.79256    0.44308    1.08020   1.00
H2       0.74731    0.46576    1.06932   1.00
H2       0.70744    0.57767    1.06033   1.00
H2       0.75269    0.55281    1.05647   1.00
N1       0.75857    0.41395    1.03768   1.00
C6       0.78073    0.38556    1.02275   1.00
C6       0.72154    0.40256    1.03380   1.00
C6       0.75759    0.35590    1.00867   1.00
C6       0.71995    0.36670    1.01570   1.00
H3       0.81197    0.38638    1.02175   1.00
H3       0.69700    0.41941    1.04324   1.00
H3       0.76713    0.32934    0.99485   1.00
H3       0.69425    0.35028    1.00842   1.00
N1       0.74143    0.59327    1.01121   1.00
C6       0.77846    0.60305    1.00420   1.00
C6       0.71927    0.61613    0.98871   1.00
C6       0.78005    0.63215    0.97652   1.00
C6       0.74241    0.64046    0.96666   1.00
H3       0.80300    0.58965    1.01811   1.00
H3       0.68803    0.61506    0.98799   1.00
H3       0.80575    0.64577    0.96480   1.00
H3       0.73287    0.66189    0.94576   1.00
C4       0.50003    0.27085    1.00020   1.00
C4       0.49997    0.22915    0.99980   1.00
C3a      0.48163    0.29254    1.03065   1.00
C3       0.52630    0.20768    1.02306   1.00
C3       0.51852    0.29232    0.97033   1.00
C3a      0.47356    0.20746    0.97597   1.00
C2       0.50008    0.35512    0.99999   1.00
C2       0.50008    0.14488    0.99998   1.00
C3       0.48189    0.33405    1.03002   1.00
C3       0.52624    0.16637    1.02320   1.00
C3       0.51842    0.33363    0.97021   1.00
C3       0.47399    0.16595    0.97650   1.00
C5       0.46091    0.27228    1.06396   1.00
H1       0.54679    0.22309    1.04154   1.00
H1       0.46769    0.35021    1.05312   1.00
H1       0.54676    0.15099    1.04162   1.00
H1       0.53274    0.34901    0.94664   1.00
H1       0.45372    0.14979    0.95848   1.00
C5       0.44409    0.22772    0.95006   1.00
H1       0.53280    0.27691    0.94672   1.00
H2       0.41980    0.20744    0.94308   1.00
H2       0.43068    0.25269    0.96576   1.00
H2       0.43967    0.29256    1.07767   1.00
H2       0.44353    0.24731    1.05281   1.00
N1       0.46232    0.24143    0.91395   1.00
C6       0.47725    0.21927    0.88556   1.00
C6       0.46620    0.27846    0.90256   1.00
C6       0.49133    0.24241    0.85590   1.00
C6       0.48430    0.28005    0.86670   1.00
H3       0.47825    0.18803    0.88638   1.00
H3       0.45676    0.30300    0.91941   1.00
H3       0.50515    0.23287    0.82934   1.00
H3       0.49158    0.30575    0.85028   1.00
N1       0.48879    0.25857    1.09327   1.00
C6       0.49580    0.22154    1.10305   1.00
C6       0.51129    0.28073    1.11613   1.00
C6       0.52348    0.21995    1.13215   1.00
C6       0.53334    0.25759    1.14046   1.00
H3       0.48189    0.19700    1.08965   1.00
H3       0.51201    0.31197    1.11506   1.00
H3       0.53520    0.19425    1.14577   1.00
H3       0.55424    0.26713    1.16189   1.00
C4       0.50020    0.50003    0.77085   1.00
C4       0.49980    0.49997    0.72915   1.00
C3a      0.53065    0.48163    0.79254   1.00
C3       0.52306    0.52630    0.70768   1.00
C3       0.47033    0.51852    0.79232   1.00
C3a      0.47597    0.47356    0.70746   1.00
C2       0.49999    0.50008    0.85512   1.00
C2       0.49998    0.50008    0.64488   1.00
C3       0.53002    0.48189    0.83405   1.00
C3       0.52320    0.52624    0.66637   1.00
C3       0.47021    0.51842    0.83363   1.00
C3       0.47650    0.47399    0.66595   1.00
C5       0.56396    0.46091    0.77228   1.00
H1       0.54154    0.54679    0.72309   1.00
H1       0.55312    0.46769    0.85021   1.00
H1       0.54162    0.54676    0.65099   1.00
H1       0.44664    0.53274    0.84901   1.00
H1       0.45848    0.45372    0.64979   1.00
C5       0.45006    0.44409    0.72772   1.00
H1       0.44672    0.53280    0.77691   1.00
H2       0.44308    0.41980    0.70744   1.00
H2       0.46576    0.43068    0.75269   1.00
H2       0.57767    0.43967    0.79256   1.00
H2       0.55281    0.44353    0.74731   1.00
N1       0.41395    0.46232    0.74143   1.00
C6       0.38556    0.47725    0.71927   1.00
C6       0.40256    0.46620    0.77846   1.00
C6       0.35590    0.49133    0.74241   1.00
C6       0.36670    0.48430    0.78005   1.00
H3       0.38638    0.47825    0.68803   1.00
H3       0.41941    0.45676    0.80300   1.00
H3       0.32934    0.50515    0.73287   1.00
H3       0.35028    0.49158    0.80575   1.00
N1       0.59327    0.48879    0.75857   1.00
C6       0.60305    0.49580    0.72154   1.00
C6       0.61613    0.51129    0.78073   1.00
C6       0.63215    0.52348    0.71995   1.00
C6       0.64046    0.53334    0.75759   1.00
H3       0.58965    0.48189    0.69700   1.00
H3       0.61506    0.51201    0.81197   1.00
H3       0.64577    0.53520    0.69425   1.00
H3       0.66189    0.55424    0.76713   1.00
C4       0.50020    0.99997    0.72915   1.00
C4       0.49980    1.00003    0.77085   1.00
C3a      0.53065    1.01837    0.70746   1.00
C3       0.52306    0.97370    0.79232   1.00
C3       0.47033    0.98148    0.70768   1.00
C3a      0.47597    1.02644    0.79254   1.00
C2       0.49999    0.99992    0.64488   1.00
C2       0.49998    0.99992    0.85512   1.00
C3       0.53002    1.01811    0.66595   1.00
C3       0.52320    0.97376    0.83363   1.00
C3       0.47021    0.98158    0.66637   1.00
C3       0.47650    1.02601    0.83405   1.00
C5       0.56396    1.03909    0.72772   1.00
H1       0.54154    0.95321    0.77691   1.00
H1       0.55312    1.03231    0.64979   1.00
H1       0.54162    0.95324    0.84901   1.00
H1       0.44664    0.96726    0.65099   1.00
H1       0.45848    1.04628    0.85021   1.00
C5       0.45006    1.05591    0.77228   1.00
H1       0.44672    0.96720    0.72309   1.00
H2       0.44308    1.08020    0.79256   1.00
H2       0.46576    1.06932    0.74731   1.00
H2       0.57767    1.06033    0.70744   1.00
H2       0.55281    1.05647    0.75269   1.00
N1       0.41395    1.03768    0.75857   1.00
C6       0.38556    1.02275    0.78073   1.00
C6       0.40256    1.03380    0.72154   1.00
C6       0.35590    1.00867    0.75759   1.00
C6       0.36670    1.01570    0.71995   1.00
H3       0.38638    1.02175    0.81197   1.00
H3       0.41941    1.04324    0.69700   1.00
H3       0.32934    0.99485    0.76713   1.00
H3       0.35028    1.00842    0.69425   1.00
N1       0.59327    1.01121    0.74143   1.00
C6       0.60305    1.00420    0.77846   1.00
C6       0.61613    0.98871    0.71927   1.00
C6       0.63215    0.97652    0.78005   1.00
C6       0.64046    0.96666    0.74241   1.00
H3       0.58965    1.01811    0.80300   1.00
H3       0.61506    0.98799    0.68803   1.00
H3       0.64577    0.96480    0.80575   1.00
H3       0.66189    0.94576    0.73287   1.00
C4       0.49997    1.22915    0.50020   1.00
C4       0.50003    1.27085    0.49980   1.00
C3a      0.51837    1.20746    0.53065   1.00
C3       0.47370    1.29232    0.52306   1.00
C3       0.48148    1.20768    0.47033   1.00
C3a      0.52644    1.29254    0.47597   1.00
C2       0.49992    1.14488    0.49999   1.00
C2       0.49992    1.35512    0.49998   1.00
C3       0.51811    1.16595    0.53002   1.00
C3       0.47376    1.33363    0.52320   1.00
C3       0.48158    1.16637    0.47021   1.00
C3       0.52601    1.33405    0.47650   1.00
C5       0.53909    1.22772    0.56396   1.00
H1       0.45321    1.27691    0.54154   1.00
H1       0.53231    1.14979    0.55312   1.00
H1       0.45324    1.34901    0.54162   1.00
H1       0.46726    1.15099    0.44664   1.00
H1       0.54628    1.35021    0.45848   1.00
C5       0.55591    1.27228    0.45006   1.00
H1       0.46720    1.22309    0.44672   1.00
H2       0.58020    1.29256    0.44308   1.00
H2       0.56932    1.24731    0.46576   1.00
H2       0.56033    1.20744    0.57767   1.00
H2       0.55647    1.25269    0.55281   1.00
N1       0.53768    1.25857    0.41395   1.00
C6       0.52275    1.28073    0.38556   1.00
C6       0.53380    1.22154    0.40256   1.00
C6       0.50867    1.25759    0.35590   1.00
C6       0.51570    1.21995    0.36670   1.00
H3       0.52175    1.31197    0.38638   1.00
H3       0.54324    1.19700    0.41941   1.00
H3       0.49485    1.26713    0.32934   1.00
H3       0.50842    1.19425    0.35028   1.00
N1       0.51121    1.24143    0.59327   1.00
C6       0.50420    1.27846    0.60305   1.00
C6       0.48871    1.21927    0.61613   1.00
C6       0.47652    1.28005    0.63215   1.00
C6       0.46666    1.24241    0.64046   1.00
H3       0.51811    1.30300    0.58965   1.00
H3       0.48799    1.18803    0.61506   1.00
H3       0.46480    1.30575    0.64577   1.00
H3       0.44576    1.23287    0.66189   1.00
C4       0.27085    1.00020    0.50003   1.00
C4       0.22915    0.99980    0.49997   1.00
C3a      0.29254    1.03065    0.48163   1.00
C3       0.20768    1.02306    0.52630   1.00
C3       0.29232    0.97033    0.51852   1.00
C3a      0.20746    0.97597    0.47356   1.00
C2       0.35512    0.99999    0.50008   1.00
C2       0.14488    0.99998    0.50008   1.00
C3       0.33405    1.03002    0.48189   1.00
C3       0.16637    1.02320    0.52624   1.00
C3       0.33363    0.97021    0.51842   1.00
C3       0.16595    0.97650    0.47399   1.00
C5       0.27228    1.06396    0.46091   1.00
H1       0.22309    1.04154    0.54679   1.00
H1       0.35021    1.05312    0.46769   1.00
H1       0.15099    1.04162    0.54676   1.00
H1       0.34901    0.94664    0.53274   1.00
H1       0.14979    0.95848    0.45372   1.00
C5       0.22772    0.95006    0.44409   1.00
H1       0.27691    0.94672    0.53280   1.00
H2       0.20744    0.94308    0.41980   1.00
H2       0.25269    0.96576    0.43068   1.00
H2       0.29256    1.07767    0.43967   1.00
H2       0.24731    1.05281    0.44353   1.00
N1       0.24143    0.91395    0.46232   1.00
C6       0.21927    0.88556    0.47725   1.00
C6       0.27846    0.90256    0.46620   1.00
C6       0.24241    0.85590    0.49133   1.00
C6       0.28005    0.86670    0.48430   1.00
H3       0.18803    0.88638    0.47825   1.00
H3       0.30300    0.91941    0.45676   1.00
H3       0.23287    0.82934    0.50515   1.00
H3       0.30575    0.85028    0.49158   1.00
N1       0.25857    1.09327    0.48879   1.00
C6       0.22154    1.10305    0.49580   1.00
C6       0.28073    1.11613    0.51129   1.00
C6       0.21995    1.13215    0.52348   1.00
C6       0.25759    1.14046    0.53334   1.00
H3       0.19700    1.08965    0.48189   1.00
H3       0.31197    1.11506    0.51201   1.00
H3       0.19425    1.14577    0.53520   1.00
H3       0.26713    1.16189    0.55424   1.00
C4       0.72915    1.00020    0.49997   1.00
C4       0.77085    0.99980    0.50003   1.00
C3a      0.70746    1.03065    0.51837   1.00
C3       0.79232    1.02306    0.47370   1.00
C3       0.70768    0.97033    0.48148   1.00
C3a      0.79254    0.97597    0.52644   1.00
C2       0.64488    0.99999    0.49992   1.00
C2       0.85512    0.99998    0.49992   1.00
C3       0.66595    1.03002    0.51811   1.00
C3       0.83363    1.02320    0.47376   1.00
C3       0.66637    0.97021    0.48158   1.00
C3       0.83405    0.97650    0.52601   1.00
C5       0.72772    1.06396    0.53909   1.00
H1       0.77691    1.04154    0.45321   1.00
H1       0.64979    1.05312    0.53231   1.00
H1       0.84901    1.04162    0.45324   1.00
H1       0.65099    0.94664    0.46726   1.00
H1       0.85021    0.95848    0.54628   1.00
C5       0.77228    0.95006    0.55591   1.00
H1       0.72309    0.94672    0.46720   1.00
H2       0.79256    0.94308    0.58020   1.00
H2       0.74731    0.96576    0.56932   1.00
H2       0.70744    1.07767    0.56033   1.00
H2       0.75269    1.05281    0.55647   1.00
N1       0.75857    0.91395    0.53768   1.00
C6       0.78073    0.88556    0.52275   1.00
C6       0.72154    0.90256    0.53380   1.00
C6       0.75759    0.85590    0.50867   1.00
C6       0.71995    0.86670    0.51570   1.00
H3       0.81197    0.88638    0.52175   1.00
H3       0.69700    0.91941    0.54324   1.00
H3       0.76713    0.82934    0.49485   1.00
H3       0.69425    0.85028    0.50842   1.00
N1       0.74143    1.09327    0.51121   1.00
C6       0.77846    1.10305    0.50420   1.00
C6       0.71927    1.11613    0.48871   1.00
C6       0.78005    1.13215    0.47652   1.00
C6       0.74241    1.14046    0.46666   1.00
H3       0.80300    1.08965    0.51811   1.00
H3       0.68803    1.11506    0.48799   1.00
H3       0.80575    1.14577    0.46480   1.00
H3       0.73287    1.16189    0.44576   1.00
C4       0.50003    0.77085    0.50020   1.00
C4       0.49997    0.72915    0.49980   1.00
C3a      0.48163    0.79254    0.53065   1.00
C3       0.52630    0.70768    0.52306   1.00
C3       0.51852    0.79232    0.47033   1.00
C3a      0.47356    0.70746    0.47597   1.00
C2       0.50008    0.85512    0.49999   1.00
C2       0.50008    0.64488    0.49998   1.00
C3       0.48189    0.83405    0.53002   1.00
C3       0.52624    0.66637    0.52320   1.00
C3       0.51842    0.83363    0.47021   1.00
C3       0.47399    0.66595    0.47650   1.00
C5       0.46091    0.77228    0.56396   1.00
H1       0.54679    0.72309    0.54154   1.00
H1       0.46769    0.85021    0.55312   1.00
H1       0.54676    0.65099    0.54162   1.00
H1       0.53274    0.84901    0.44664   1.00
H1       0.45372    0.64979    0.45848   1.00
C5       0.44409    0.72772    0.45006   1.00
H1       0.53280    0.77691    0.44672   1.00
H2       0.41980    0.70744    0.44308   1.00
H2       0.43068    0.75269    0.46576   1.00
H2       0.43967    0.79256    0.57767   1.00
H2       0.44353    0.74731    0.55281   1.00
N1       0.46232    0.74143    0.41395   1.00
C6       0.47725    0.71927    0.38556   1.00
C6       0.46620    0.77846    0.40256   1.00
C6       0.49133    0.74241    0.35590   1.00
C6       0.48430    0.78005    0.36670   1.00
H3       0.47825    0.68803    0.38638   1.00
H3       0.45676    0.80300    0.41941   1.00
H3       0.50515    0.73287    0.32934   1.00
H3       0.49158    0.80575    0.35028   1.00
N1       0.48879    0.75857    0.59327   1.00
C6       0.49580    0.72154    0.60305   1.00
C6       0.51129    0.78073    0.61613   1.00
C6       0.52348    0.71995    0.63215   1.00
C6       0.53334    0.75759    0.64046   1.00
H3       0.48189    0.69700    0.58965   1.00
H3       0.51201    0.81197    0.61506   1.00
H3       0.53520    0.69425    0.64577   1.00
H3       0.55424    0.76713    0.66189   1.00
C4       0.50020    1.00003    0.27085   1.00
C4       0.49980    0.99997    0.22915   1.00
C3a      0.53065    0.98163    0.29254   1.00
C3       0.52306    1.02630    0.20768   1.00
C3       0.47033    1.01852    0.29232   1.00
C3a      0.47597    0.97356    0.20746   1.00
C2       0.49999    1.00008    0.35512   1.00
C2       0.49998    1.00008    0.14488   1.00
C3       0.53002    0.98189    0.33405   1.00
C3       0.52320    1.02624    0.16637   1.00
C3       0.47021    1.01842    0.33363   1.00
C3       0.47650    0.97399    0.16595   1.00
C5       0.56396    0.96091    0.27228   1.00
H1       0.54154    1.04679    0.22309   1.00
H1       0.55312    0.96769    0.35021   1.00
H1       0.54162    1.04676    0.15099   1.00
H1       0.44664    1.03274    0.34901   1.00
H1       0.45848    0.95372    0.14979   1.00
C5       0.45006    0.94409    0.22772   1.00
H1       0.44672    1.03280    0.27691   1.00
H2       0.44308    0.91980    0.20744   1.00
H2       0.46576    0.93068    0.25269   1.00
H2       0.57767    0.93967    0.29256   1.00
H2       0.55281    0.94353    0.24731   1.00
N1       0.41395    0.96232    0.24143   1.00
C6       0.38556    0.97725    0.21927   1.00
C6       0.40256    0.96620    0.27846   1.00
C6       0.35590    0.99133    0.24241   1.00
C6       0.36670    0.98430    0.28005   1.00
H3       0.38638    0.97825    0.18803   1.00
H3       0.41941    0.95676    0.30300   1.00
H3       0.32934    1.00515    0.23287   1.00
H3       0.35028    0.99158    0.30575   1.00
N1       0.59327    0.98879    0.25857   1.00
C6       0.60305    0.99580    0.22154   1.00
C6       0.61613    1.01129    0.28073   1.00
C6       0.63215    1.02348    0.21995   1.00
C6       0.64046    1.03334    0.25759   1.00
H3       0.58965    0.98189    0.19700   1.00
H3       0.61506    1.01201    0.31197   1.00
H3       0.64577    1.03520    0.19425   1.00
H3       0.66189    1.05424    0.26713   1.00
C4       1.00020    0.49997    0.72915   1.00
C4       0.99980    0.50003    0.77085   1.00
C3a      1.03065    0.51837    0.70746   1.00
C3       1.02306    0.47370    0.79232   1.00
C3       0.97033    0.48148    0.70768   1.00
C3a      0.97597    0.52644    0.79254   1.00
C2       0.99999    0.49992    0.64488   1.00
C2       0.99998    0.49992    0.85512   1.00
C3       1.03002    0.51811    0.66595   1.00
C3       1.02320    0.47376    0.83363   1.00
C3       0.97021    0.48158    0.66637   1.00
C3       0.97650    0.52601    0.83405   1.00
C5       1.06396    0.53909    0.72772   1.00
H1       1.04154    0.45321    0.77691   1.00
H1       1.05312    0.53231    0.64979   1.00
H1       1.04162    0.45324    0.84901   1.00
H1       0.94664    0.46726    0.65099   1.00
H1       0.95848    0.54628    0.85021   1.00
C5       0.95006    0.55591    0.77228   1.00
H1       0.94672    0.46720    0.72309   1.00
H2       0.94308    0.58020    0.79256   1.00
H2       0.96576    0.56932    0.74731   1.00
H2       1.07767    0.56033    0.70744   1.00
H2       1.05281    0.55647    0.75269   1.00
N1       0.91395    0.53768    0.75857   1.00
C6       0.88556    0.52275    0.78073   1.00
C6       0.90256    0.53380    0.72154   1.00
C6       0.85590    0.50867    0.75759   1.00
C6       0.86670    0.51570    0.71995   1.00
H3       0.88638    0.52175    0.81197   1.00
H3       0.91941    0.54324    0.69700   1.00
H3       0.82934    0.49485    0.76713   1.00
H3       0.85028    0.50842    0.69425   1.00
N1       1.09327    0.51121    0.74143   1.00
C6       1.10305    0.50420    0.77846   1.00
C6       1.11613    0.48871    0.71927   1.00
C6       1.13215    0.47652    0.78005   1.00
C6       1.14046    0.46666    0.74241   1.00
H3       1.08965    0.51811    0.80300   1.00
H3       1.11506    0.48799    0.68803   1.00
H3       1.14577    0.46480    0.80575   1.00
H3       1.16189    0.44576    0.73287   1.00
C4       0.99997    0.72915    0.50020   1.00
C4       1.00003    0.77085    0.49980   1.00
C3a      1.01837    0.70746    0.53065   1.00
C3       0.97370    0.79232    0.52306   1.00
C3       0.98148    0.70768    0.47033   1.00
C3a      1.02644    0.79254    0.47597   1.00
C2       0.99992    0.64488    0.49999   1.00
C2       0.99992    0.85512    0.49998   1.00
C3       1.01811    0.66595    0.53002   1.00
C3       0.97376    0.83363    0.52320   1.00
C3       0.98158    0.66637    0.47021   1.00
C3       1.02601    0.83405    0.47650   1.00
C5       1.03909    0.72772    0.56396   1.00
H1       0.95321    0.77691    0.54154   1.00
H1       1.03231    0.64979    0.55312   1.00
H1       0.95324    0.84901    0.54162   1.00
H1       0.96726    0.65099    0.44664   1.00
H1       1.04628    0.85021    0.45848   1.00
C5       1.05591    0.77228    0.45006   1.00
H1       0.96720    0.72309    0.44672   1.00
H2       1.08020    0.79256    0.44308   1.00
H2       1.06932    0.74731    0.46576   1.00
H2       1.06033    0.70744    0.57767   1.00
H2       1.05647    0.75269    0.55281   1.00
N1       1.03768    0.75857    0.41395   1.00
C6       1.02275    0.78073    0.38556   1.00
C6       1.03380    0.72154    0.40256   1.00
C6       1.00867    0.75759    0.35590   1.00
C6       1.01570    0.71995    0.36670   1.00
H3       1.02175    0.81197    0.38638   1.00
H3       1.04324    0.69700    0.41941   1.00
H3       0.99485    0.76713    0.32934   1.00
H3       1.00842    0.69425    0.35028   1.00
N1       1.01121    0.74143    0.59327   1.00
C6       1.00420    0.77846    0.60305   1.00
C6       0.98871    0.71927    0.61613   1.00
C6       0.97652    0.78005    0.63215   1.00
C6       0.96666    0.74241    0.64046   1.00
H3       1.01811    0.80300    0.58965   1.00
H3       0.98799    0.68803    0.61506   1.00
H3       0.96480    0.80575    0.64577   1.00
H3       0.94576    0.73287    0.66189   1.00
C4       0.77085    0.50020    0.50003   1.00
C4       0.72915    0.49980    0.49997   1.00
C3a      0.79254    0.53065    0.48163   1.00
C3       0.70768    0.52306    0.52630   1.00
C3       0.79232    0.47033    0.51852   1.00
C3a      0.70746    0.47597    0.47356   1.00
C2       0.85512    0.49999    0.50008   1.00
C2       0.64488    0.49998    0.50008   1.00
C3       0.83405    0.53002    0.48189   1.00
C3       0.66637    0.52320    0.52624   1.00
C3       0.83363    0.47021    0.51842   1.00
C3       0.66595    0.47650    0.47399   1.00
C5       0.77228    0.56396    0.46091   1.00
H1       0.72309    0.54154    0.54679   1.00
H1       0.85021    0.55312    0.46769   1.00
H1       0.65099    0.54162    0.54676   1.00
H1       0.84901    0.44664    0.53274   1.00
H1       0.64979    0.45848    0.45372   1.00
C5       0.72772    0.45006    0.44409   1.00
H1       0.77691    0.44672    0.53280   1.00
H2       0.70744    0.44308    0.41980   1.00
H2       0.75269    0.46576    0.43068   1.00
H2       0.79256    0.57767    0.43967   1.00
H2       0.74731    0.55281    0.44353   1.00
N1       0.74143    0.41395    0.46232   1.00
C6       0.71927    0.38556    0.47725   1.00
C6       0.77846    0.40256    0.46620   1.00
C6       0.74241    0.35590    0.49133   1.00
C6       0.78005    0.36670    0.48430   1.00
H3       0.68803    0.38638    0.47825   1.00
H3       0.80300    0.41941    0.45676   1.00
H3       0.73287    0.32934    0.50515   1.00
H3       0.80575    0.35028    0.49158   1.00
N1       0.75857    0.59327    0.48879   1.00
C6       0.72154    0.60305    0.49580   1.00
C6       0.78073    0.61613    0.51129   1.00
C6       0.71995    0.63215    0.52348   1.00
C6       0.75759    0.64046    0.53334   1.00
H3       0.69700    0.58965    0.48189   1.00
H3       0.81197    0.61506    0.51201   1.00
H3       0.69425    0.64577    0.53520   1.00
H3       0.76713    0.66189    0.55424   1.00
C4       1.22915    0.50020    0.49997   1.00
C4       1.27085    0.49980    0.50003   1.00
C3a      1.20746    0.53065    0.51837   1.00
C3       1.29232    0.52306    0.47370   1.00
C3       1.20768    0.47033    0.48148   1.00
C3a      1.29254    0.47597    0.52644   1.00
C2       1.14488    0.49999    0.49992   1.00
C2       1.35512    0.49998    0.49992   1.00
C3       1.16595    0.53002    0.51811   1.00
C3       1.33363    0.52320    0.47376   1.00
C3       1.16637    0.47021    0.48158   1.00
C3       1.33405    0.47650    0.52601   1.00
C5       1.22772    0.56396    0.53909   1.00
H1       1.27691    0.54154    0.45321   1.00
H1       1.14979    0.55312    0.53231   1.00
H1       1.34901    0.54162    0.45324   1.00
H1       1.15099    0.44664    0.46726   1.00
H1       1.35021    0.45848    0.54628   1.00
C5       1.27228    0.45006    0.55591   1.00
H1       1.22309    0.44672    0.46720   1.00
H2       1.29256    0.44308    0.58020   1.00
H2       1.24731    0.46576    0.56932   1.00
H2       1.20744    0.57767    0.56033   1.00
H2       1.25269    0.55281    0.55647   1.00
N1       1.25857    0.41395    0.53768   1.00
C6       1.28073    0.38556    0.52275   1.00
C6       1.22154    0.40256    0.53380   1.00
C6       1.25759    0.35590    0.50867   1.00
C6       1.21995    0.36670    0.51570   1.00
H3       1.31197    0.38638    0.52175   1.00
H3       1.19700    0.41941    0.54324   1.00
H3       1.26713    0.32934    0.49485   1.00
H3       1.19425    0.35028    0.50842   1.00
N1       1.24143    0.59327    0.51121   1.00
C6       1.27846    0.60305    0.50420   1.00
C6       1.21927    0.61613    0.48871   1.00
C6       1.28005    0.63215    0.47652   1.00
C6       1.24241    0.64046    0.46666   1.00
H3       1.30300    0.58965    0.51811   1.00
H3       1.18803    0.61506    0.48799   1.00
H3       1.30575    0.64577    0.46480   1.00
H3       1.23287    0.66189    0.44576   1.00
C4       1.00003    0.27085    0.50020   1.00
C4       0.99997    0.22915    0.49980   1.00
C3a      0.98163    0.29254    0.53065   1.00
C3       1.02630    0.20768    0.52306   1.00
C3       1.01852    0.29232    0.47033   1.00
C3a      0.97356    0.20746    0.47597   1.00
C2       1.00008    0.35512    0.49999   1.00
C2       1.00008    0.14488    0.49998   1.00
C3       0.98189    0.33405    0.53002   1.00
C3       1.02624    0.16637    0.52320   1.00
C3       1.01842    0.33363    0.47021   1.00
C3       0.97399    0.16595    0.47650   1.00
C5       0.96091    0.27228    0.56396   1.00
H1       1.04679    0.22309    0.54154   1.00
H1       0.96769    0.35021    0.55312   1.00
H1       1.04676    0.15099    0.54162   1.00
H1       1.03274    0.34901    0.44664   1.00
H1       0.95372    0.14979    0.45848   1.00
C5       0.94409    0.22772    0.45006   1.00
H1       1.03280    0.27691    0.44672   1.00
H2       0.91980    0.20744    0.44308   1.00
H2       0.93068    0.25269    0.46576   1.00
H2       0.93967    0.29256    0.57767   1.00
H2       0.94353    0.24731    0.55281   1.00
N1       0.96232    0.24143    0.41395   1.00
C6       0.97725    0.21927    0.38556   1.00
C6       0.96620    0.27846    0.40256   1.00
C6       0.99133    0.24241    0.35590   1.00
C6       0.98430    0.28005    0.36670   1.00
H3       0.97825    0.18803    0.38638   1.00
H3       0.95676    0.30300    0.41941   1.00
H3       1.00515    0.23287    0.32934   1.00
H3       0.99158    0.30575    0.35028   1.00
N1       0.98879    0.25857    0.59327   1.00
C6       0.99580    0.22154    0.60305   1.00
C6       1.01129    0.28073    0.61613   1.00
C6       1.02348    0.21995    0.63215   1.00
C6       1.03334    0.25759    0.64046   1.00
H3       0.98189    0.19700    0.58965   1.00
H3       1.01201    0.31197    0.61506   1.00
H3       1.03520    0.19425    0.64577   1.00
H3       1.05424    0.26713    0.66189   1.00
C4       1.00020    0.50003    0.27085   1.00
C4       0.99980    0.49997    0.22915   1.00
C3a      1.03065    0.48163    0.29254   1.00
C3       1.02306    0.52630    0.20768   1.00
C3       0.97033    0.51852    0.29232   1.00
C3a      0.97597    0.47356    0.20746   1.00
C2       0.99999    0.50008    0.35512   1.00
C2       0.99998    0.50008    0.14488   1.00
C3       1.03002    0.48189    0.33405   1.00
C3       1.02320    0.52624    0.16637   1.00
C3       0.97021    0.51842    0.33363   1.00
C3       0.97650    0.47399    0.16595   1.00
C5       1.06396    0.46091    0.27228   1.00
H1       1.04154    0.54679    0.22309   1.00
H1       1.05312    0.46769    0.35021   1.00
H1       1.04162    0.54676    0.15099   1.00
H1       0.94664    0.53274    0.34901   1.00
H1       0.95848    0.45372    0.14979   1.00
C5       0.95006    0.44409    0.22772   1.00
H1       0.94672    0.53280    0.27691   1.00
H2       0.94308    0.41980    0.20744   1.00
H2       0.96576    0.43068    0.25269   1.00
H2       1.07767    0.43967    0.29256   1.00
H2       1.05281    0.44353    0.24731   1.00
N1       0.91395    0.46232    0.24143   1.00
C6       0.88556    0.47725    0.21927   1.00
C6       0.90256    0.46620    0.27846   1.00
C6       0.85590    0.49133    0.24241   1.00
C6       0.86670    0.48430    0.28005   1.00
H3       0.88638    0.47825    0.18803   1.00
H3       0.91941    0.45676    0.30300   1.00
H3       0.82934    0.50515    0.23287   1.00
H3       0.85028    0.49158    0.30575   1.00
N1       1.09327    0.48879    0.25857   1.00
C6       1.10305    0.49580    0.22154   1.00
C6       1.11613    0.51129    0.28073   1.00
C6       1.13215    0.52348    0.21995   1.00
C6       1.14046    0.53334    0.25759   1.00
H3       1.08965    0.48189    0.19700   1.00
H3       1.11506    0.51201    0.31197   1.00
H3       1.14577    0.53520    0.19425   1.00
H3       1.16189    0.55424    0.26713   1.00
