data_IRMOF10_SG202_interpen_Ligand2lp_label_j.

_audit_creation_method             'generated by an auxiliary program of Tobunporous'

_symmetry_space_group_name_H-M     'P 1'
_symmetry_Int_Tables_number        1
_symmetry_cell_setting             triclinic

_cell_length_a                    34.2800
_cell_length_b                    34.2800
_cell_length_c                    34.2800
_cell_angle_alpha                 90.0000
_cell_angle_beta                  90.0000
_cell_angle_gamma                 90.0000

loop_
_atom_site_label
_atom_site_fract_x
_atom_site_fract_y
_atom_site_fract_z
_atom_site_occupancy
O1       0.75000    0.75000    0.75000   1.00
Zn1      0.71720    0.78280    0.78280   1.00
Zn1      0.78280    0.71720    0.78280   1.00
Zn1      0.78280    0.78280    0.71720   1.00
Zn1      0.71720    0.71720    0.71720   1.00
O2       0.72650    0.77350    0.83820   1.00
O2       0.72650    0.83820    0.77350   1.00
O2       0.66180    0.77350    0.77350   1.00
O2       0.77350    0.72650    0.83820   1.00
O2       0.83820    0.72650    0.77350   1.00
O2       0.77350    0.66180    0.77350   1.00
O2       0.77350    0.83820    0.72650   1.00
O2       0.83820    0.77350    0.72650   1.00
O2       0.77350    0.77350    0.66180   1.00
O2       0.66180    0.72650    0.72650   1.00
O2       0.72650    0.66180    0.72650   1.00
O2       0.72650    0.72650    0.66180   1.00
C1       0.75000    0.75000    0.85520   1.00
C1       0.75000    0.85520    0.75000   1.00
C1       0.64480    0.75000    0.75000   1.00
C1       0.85520    0.75000    0.75000   1.00
C1       0.75000    0.64480    0.75000   1.00
C1       0.75000    0.75000    0.64480   1.00
O1       0.25000    0.25000    0.75000   1.00
Zn1      0.21720    0.28280    0.78280   1.00
Zn1      0.28280    0.21720    0.78280   1.00
Zn1      0.28280    0.28280    0.71720   1.00
Zn1      0.21720    0.21720    0.71720   1.00
O2       0.22650    0.27350    0.83820   1.00
O2       0.22650    0.33820    0.77350   1.00
O2       0.16180    0.27350    0.77350   1.00
O2       0.27350    0.22650    0.83820   1.00
O2       0.33820    0.22650    0.77350   1.00
O2       0.27350    0.16180    0.77350   1.00
O2       0.27350    0.33820    0.72650   1.00
O2       0.33820    0.27350    0.72650   1.00
O2       0.27350    0.27350    0.66180   1.00
O2       0.16180    0.22650    0.72650   1.00
O2       0.22650    0.16180    0.72650   1.00
O2       0.22650    0.22650    0.66180   1.00
C1       0.25000    0.25000    0.85520   1.00
C1       0.25000    0.35520    0.75000   1.00
C1       0.14480    0.25000    0.75000   1.00
C1       0.35520    0.25000    0.75000   1.00
C1       0.25000    0.14480    0.75000   1.00
C1       0.25000    0.25000    0.64480   1.00
O1       0.25000    0.75000    0.25000   1.00
Zn1      0.21720    0.78280    0.28280   1.00
Zn1      0.28280    0.71720    0.28280   1.00
Zn1      0.28280    0.78280    0.21720   1.00
Zn1      0.21720    0.71720    0.21720   1.00
O2       0.22650    0.77350    0.33820   1.00
O2       0.22650    0.83820    0.27350   1.00
O2       0.16180    0.77350    0.27350   1.00
O2       0.27350    0.72650    0.33820   1.00
O2       0.33820    0.72650    0.27350   1.00
O2       0.27350    0.66180    0.27350   1.00
O2       0.27350    0.83820    0.22650   1.00
O2       0.33820    0.77350    0.22650   1.00
O2       0.27350    0.77350    0.16180   1.00
O2       0.16180    0.72650    0.22650   1.00
O2       0.22650    0.66180    0.22650   1.00
O2       0.22650    0.72650    0.16180   1.00
C1       0.25000    0.75000    0.35520   1.00
C1       0.25000    0.85520    0.25000   1.00
C1       0.14480    0.75000    0.25000   1.00
C1       0.35520    0.75000    0.25000   1.00
C1       0.25000    0.64480    0.25000   1.00
C1       0.25000    0.75000    0.14480   1.00
O1       0.75000    0.25000    0.25000   1.00
Zn1      0.71720    0.28280    0.28280   1.00
Zn1      0.78280    0.21720    0.28280   1.00
Zn1      0.78280    0.28280    0.21720   1.00
Zn1      0.71720    0.21720    0.21720   1.00
O2       0.72650    0.27350    0.33820   1.00
O2       0.72650    0.33820    0.27350   1.00
O2       0.66180    0.27350    0.27350   1.00
O2       0.77350    0.22650    0.33820   1.00
O2       0.83820    0.22650    0.27350   1.00
O2       0.77350    0.16180    0.27350   1.00
O2       0.77350    0.33820    0.22650   1.00
O2       0.83820    0.27350    0.22650   1.00
O2       0.77350    0.27350    0.16180   1.00
O2       0.66180    0.22650    0.22650   1.00
O2       0.72650    0.16180    0.22650   1.00
O2       0.72650    0.22650    0.16180   1.00
C1       0.75000    0.25000    0.35520   1.00
C1       0.75000    0.35520    0.25000   1.00
C1       0.64480    0.25000    0.25000   1.00
C1       0.85520    0.25000    0.25000   1.00
C1       0.75000    0.14480    0.25000   1.00
C1       0.75000    0.25000    0.14480   1.00
O1       0.25000    0.25000    0.25000   1.00
Zn1      0.28280    0.21720    0.21720   1.00
Zn1      0.21720    0.28280    0.21720   1.00
Zn1      0.21720    0.21720    0.28280   1.00
Zn1      0.28280    0.28280    0.28280   1.00
O2       0.27350    0.22650    0.16180   1.00
O2       0.27350    0.16180    0.22650   1.00
O2       0.33820    0.22650    0.22650   1.00
O2       0.22650    0.27350    0.16180   1.00
O2       0.16180    0.27350    0.22650   1.00
O2       0.22650    0.33820    0.22650   1.00
O2       0.22650    0.16180    0.27350   1.00
O2       0.16180    0.22650    0.27350   1.00
O2       0.22650    0.22650    0.33820   1.00
O2       0.33820    0.27350    0.27350   1.00
O2       0.27350    0.33820    0.27350   1.00
O2       0.27350    0.27350    0.33820   1.00
C1       0.25000    0.25000    0.14480   1.00
C1       0.25000    0.14480    0.25000   1.00
C1       0.35520    0.25000    0.25000   1.00
C1       0.14480    0.25000    0.25000   1.00
C1       0.25000    0.35520    0.25000   1.00
C1       0.25000    0.25000    0.35520   1.00
O1       0.75000    0.75000    0.25000   1.00
Zn1      0.78280    0.71720    0.21720   1.00
Zn1      0.71720    0.78280    0.21720   1.00
Zn1      0.71720    0.71720    0.28280   1.00
Zn1      0.78280    0.78280    0.28280   1.00
O2       0.77350    0.72650    0.16180   1.00
O2       0.77350    0.66180    0.22650   1.00
O2       0.83820    0.72650    0.22650   1.00
O2       0.72650    0.77350    0.16180   1.00
O2       0.66180    0.77350    0.22650   1.00
O2       0.72650    0.83820    0.22650   1.00
O2       0.72650    0.66180    0.27350   1.00
O2       0.66180    0.72650    0.27350   1.00
O2       0.72650    0.72650    0.33820   1.00
O2       0.83820    0.77350    0.27350   1.00
O2       0.77350    0.83820    0.27350   1.00
O2       0.77350    0.77350    0.33820   1.00
C1       0.75000    0.75000    0.14480   1.00
C1       0.75000    0.64480    0.25000   1.00
C1       0.85520    0.75000    0.25000   1.00
C1       0.64480    0.75000    0.25000   1.00
C1       0.75000    0.85520    0.25000   1.00
C1       0.75000    0.75000    0.35520   1.00
O1       0.75000    0.25000    0.75000   1.00
Zn1      0.78280    0.21720    0.71720   1.00
Zn1      0.71720    0.28280    0.71720   1.00
Zn1      0.71720    0.21720    0.78280   1.00
Zn1      0.78280    0.28280    0.78280   1.00
O2       0.77350    0.22650    0.66180   1.00
O2       0.77350    0.16180    0.72650   1.00
O2       0.83820    0.22650    0.72650   1.00
O2       0.72650    0.27350    0.66180   1.00
O2       0.66180    0.27350    0.72650   1.00
O2       0.72650    0.33820    0.72650   1.00
O2       0.72650    0.16180    0.77350   1.00
O2       0.66180    0.22650    0.77350   1.00
O2       0.72650    0.22650    0.83820   1.00
O2       0.83820    0.27350    0.77350   1.00
O2       0.77350    0.33820    0.77350   1.00
O2       0.77350    0.27350    0.83820   1.00
C1       0.75000    0.25000    0.64480   1.00
C1       0.75000    0.14480    0.75000   1.00
C1       0.85520    0.25000    0.75000   1.00
C1       0.64480    0.25000    0.75000   1.00
C1       0.75000    0.35520    0.75000   1.00
C1       0.75000    0.25000    0.85520   1.00
O1       0.25000    0.75000    0.75000   1.00
Zn1      0.28280    0.71720    0.71720   1.00
Zn1      0.21720    0.78280    0.71720   1.00
Zn1      0.21720    0.71720    0.78280   1.00
Zn1      0.28280    0.78280    0.78280   1.00
O2       0.27350    0.72650    0.66180   1.00
O2       0.27350    0.66180    0.72650   1.00
O2       0.33820    0.72650    0.72650   1.00
O2       0.22650    0.77350    0.66180   1.00
O2       0.16180    0.77350    0.72650   1.00
O2       0.22650    0.83820    0.72650   1.00
O2       0.22650    0.66180    0.77350   1.00
O2       0.16180    0.72650    0.77350   1.00
O2       0.22650    0.72650    0.83820   1.00
O2       0.33820    0.77350    0.77350   1.00
O2       0.27350    0.83820    0.77350   1.00
O2       0.27350    0.77350    0.83820   1.00
C1       0.25000    0.75000    0.64480   1.00
C1       0.25000    0.64480    0.75000   1.00
C1       0.35520    0.75000    0.75000   1.00
C1       0.14480    0.75000    0.75000   1.00
C1       0.25000    0.85520    0.75000   1.00
C1       0.25000    0.75000    0.85520   1.00
O1       1.00000    1.00000    1.00000   1.00
Zn1      0.96720    1.03280    1.03280   1.00
Zn1      1.03280    0.96720    1.03280   1.00
Zn1      1.03280    1.03280    0.96720   1.00
Zn1      0.96720    0.96720    0.96720   1.00
O2       0.97650    1.02350    1.08820   1.00
O2       0.97650    1.08820    1.02350   1.00
O2       0.91180    1.02350    1.02350   1.00
O2       1.02350    0.97650    1.08820   1.00
O2       1.08820    0.97650    1.02350   1.00
O2       1.02350    0.91180    1.02350   1.00
O2       1.02350    1.08820    0.97650   1.00
O2       1.08820    1.02350    0.97650   1.00
O2       1.02350    1.02350    0.91180   1.00
O2       0.91180    0.97650    0.97650   1.00
O2       0.97650    0.91180    0.97650   1.00
O2       0.97650    0.97650    0.91180   1.00
C1       1.00000    1.00000    1.10520   1.00
C1       1.00000    1.10520    1.00000   1.00
C1       0.89480    1.00000    1.00000   1.00
C1       1.10520    1.00000    1.00000   1.00
C1       1.00000    0.89480    1.00000   1.00
C1       1.00000    1.00000    0.89480   1.00
O1       0.50000    0.50000    1.00000   1.00
Zn1      0.46720    0.53280    1.03280   1.00
Zn1      0.53280    0.46720    1.03280   1.00
Zn1      0.53280    0.53280    0.96720   1.00
Zn1      0.46720    0.46720    0.96720   1.00
O2       0.47650    0.52350    1.08820   1.00
O2       0.47650    0.58820    1.02350   1.00
O2       0.41180    0.52350    1.02350   1.00
O2       0.52350    0.47650    1.08820   1.00
O2       0.58820    0.47650    1.02350   1.00
O2       0.52350    0.41180    1.02350   1.00
O2       0.52350    0.58820    0.97650   1.00
O2       0.58820    0.52350    0.97650   1.00
O2       0.52350    0.52350    0.91180   1.00
O2       0.41180    0.47650    0.97650   1.00
O2       0.47650    0.41180    0.97650   1.00
O2       0.47650    0.47650    0.91180   1.00
C1       0.50000    0.50000    1.10520   1.00
C1       0.50000    0.60520    1.00000   1.00
C1       0.39480    0.50000    1.00000   1.00
C1       0.60520    0.50000    1.00000   1.00
C1       0.50000    0.39480    1.00000   1.00
C1       0.50000    0.50000    0.89480   1.00
O1       0.50000    1.00000    0.50000   1.00
Zn1      0.46720    1.03280    0.53280   1.00
Zn1      0.53280    0.96720    0.53280   1.00
Zn1      0.53280    1.03280    0.46720   1.00
Zn1      0.46720    0.96720    0.46720   1.00
O2       0.47650    1.02350    0.58820   1.00
O2       0.47650    1.08820    0.52350   1.00
O2       0.41180    1.02350    0.52350   1.00
O2       0.52350    0.97650    0.58820   1.00
O2       0.58820    0.97650    0.52350   1.00
O2       0.52350    0.91180    0.52350   1.00
O2       0.52350    1.08820    0.47650   1.00
O2       0.58820    1.02350    0.47650   1.00
O2       0.52350    1.02350    0.41180   1.00
O2       0.41180    0.97650    0.47650   1.00
O2       0.47650    0.91180    0.47650   1.00
O2       0.47650    0.97650    0.41180   1.00
C1       0.50000    1.00000    0.60520   1.00
C1       0.50000    1.10520    0.50000   1.00
C1       0.39480    1.00000    0.50000   1.00
C1       0.60520    1.00000    0.50000   1.00
C1       0.50000    0.89480    0.50000   1.00
C1       0.50000    1.00000    0.39480   1.00
O1       1.00000    0.50000    0.50000   1.00
Zn1      0.96720    0.53280    0.53280   1.00
Zn1      1.03280    0.46720    0.53280   1.00
Zn1      1.03280    0.53280    0.46720   1.00
Zn1      0.96720    0.46720    0.46720   1.00
O2       0.97650    0.52350    0.58820   1.00
O2       0.97650    0.58820    0.52350   1.00
O2       0.91180    0.52350    0.52350   1.00
O2       1.02350    0.47650    0.58820   1.00
O2       1.08820    0.47650    0.52350   1.00
O2       1.02350    0.41180    0.52350   1.00
O2       1.02350    0.58820    0.47650   1.00
O2       1.08820    0.52350    0.47650   1.00
O2       1.02350    0.52350    0.41180   1.00
O2       0.91180    0.47650    0.47650   1.00
O2       0.97650    0.41180    0.47650   1.00
O2       0.97650    0.47650    0.41180   1.00
C1       1.00000    0.50000    0.60520   1.00
C1       1.00000    0.60520    0.50000   1.00
C1       0.89480    0.50000    0.50000   1.00
C1       1.10520    0.50000    0.50000   1.00
C1       1.00000    0.39480    0.50000   1.00
C1       1.00000    0.50000    0.39480   1.00
O1       0.50000    0.50000    0.50000   1.00
Zn1      0.53280    0.46720    0.46720   1.00
Zn1      0.46720    0.53280    0.46720   1.00
Zn1      0.46720    0.46720    0.53280   1.00
Zn1      0.53280    0.53280    0.53280   1.00
O2       0.52350    0.47650    0.41180   1.00
O2       0.52350    0.41180    0.47650   1.00
O2       0.58820    0.47650    0.47650   1.00
O2       0.47650    0.52350    0.41180   1.00
O2       0.41180    0.52350    0.47650   1.00
O2       0.47650    0.58820    0.47650   1.00
O2       0.47650    0.41180    0.52350   1.00
O2       0.41180    0.47650    0.52350   1.00
O2       0.47650    0.47650    0.58820   1.00
O2       0.58820    0.52350    0.52350   1.00
O2       0.52350    0.58820    0.52350   1.00
O2       0.52350    0.52350    0.58820   1.00
C1       0.50000    0.50000    0.39480   1.00
C1       0.50000    0.39480    0.50000   1.00
C1       0.60520    0.50000    0.50000   1.00
C1       0.39480    0.50000    0.50000   1.00
C1       0.50000    0.60520    0.50000   1.00
C1       0.50000    0.50000    0.60520   1.00
O1       1.00000    1.00000    0.50000   1.00
Zn1      1.03280    0.96720    0.46720   1.00
Zn1      0.96720    1.03280    0.46720   1.00
Zn1      0.96720    0.96720    0.53280   1.00
Zn1      1.03280    1.03280    0.53280   1.00
O2       1.02350    0.97650    0.41180   1.00
O2       1.02350    0.91180    0.47650   1.00
O2       1.08820    0.97650    0.47650   1.00
O2       0.97650    1.02350    0.41180   1.00
O2       0.91180    1.02350    0.47650   1.00
O2       0.97650    1.08820    0.47650   1.00
O2       0.97650    0.91180    0.52350   1.00
O2       0.91180    0.97650    0.52350   1.00
O2       0.97650    0.97650    0.58820   1.00
O2       1.08820    1.02350    0.52350   1.00
O2       1.02350    1.08820    0.52350   1.00
O2       1.02350    1.02350    0.58820   1.00
C1       1.00000    1.00000    0.39480   1.00
C1       1.00000    0.89480    0.50000   1.00
C1       1.10520    1.00000    0.50000   1.00
C1       0.89480    1.00000    0.50000   1.00
C1       1.00000    1.10520    0.50000   1.00
C1       1.00000    1.00000    0.60520   1.00
O1       1.00000    0.50000    1.00000   1.00
Zn1      1.03280    0.46720    0.96720   1.00
Zn1      0.96720    0.53280    0.96720   1.00
Zn1      0.96720    0.46720    1.03280   1.00
Zn1      1.03280    0.53280    1.03280   1.00
O2       1.02350    0.47650    0.91180   1.00
O2       1.02350    0.41180    0.97650   1.00
O2       1.08820    0.47650    0.97650   1.00
O2       0.97650    0.52350    0.91180   1.00
O2       0.91180    0.52350    0.97650   1.00
O2       0.97650    0.58820    0.97650   1.00
O2       0.97650    0.41180    1.02350   1.00
O2       0.91180    0.47650    1.02350   1.00
O2       0.97650    0.47650    1.08820   1.00
O2       1.08820    0.52350    1.02350   1.00
O2       1.02350    0.58820    1.02350   1.00
O2       1.02350    0.52350    1.08820   1.00
C1       1.00000    0.50000    0.89480   1.00
C1       1.00000    0.39480    1.00000   1.00
C1       1.10520    0.50000    1.00000   1.00
C1       0.89480    0.50000    1.00000   1.00
C1       1.00000    0.60520    1.00000   1.00
C1       1.00000    0.50000    1.10520   1.00
O1       0.50000    1.00000    1.00000   1.00
Zn1      0.53280    0.96720    0.96720   1.00
Zn1      0.46720    1.03280    0.96720   1.00
Zn1      0.46720    0.96720    1.03280   1.00
Zn1      0.53280    1.03280    1.03280   1.00
O2       0.52350    0.97650    0.91180   1.00
O2       0.52350    0.91180    0.97650   1.00
O2       0.58820    0.97650    0.97650   1.00
O2       0.47650    1.02350    0.91180   1.00
O2       0.41180    1.02350    0.97650   1.00
O2       0.47650    1.08820    0.97650   1.00
O2       0.47650    0.91180    1.02350   1.00
O2       0.41180    0.97650    1.02350   1.00
O2       0.47650    0.97650    1.08820   1.00
O2       0.58820    1.02350    1.02350   1.00
O2       0.52350    1.08820    1.02350   1.00
O2       0.52350    1.02350    1.08820   1.00
C1       0.50000    1.00000    0.89480   1.00
C1       0.50000    0.89480    1.00000   1.00
C1       0.60520    1.00000    1.00000   1.00
C1       0.39480    1.00000    1.00000   1.00
C1       0.50000    1.10520    1.00000   1.00
C1       0.50000    1.00000    1.10520   1.00
C2       0.75000    0.75000    0.89720   1.00
C3a      0.78374    0.75904    0.91780   1.00
C3a      0.71626    0.74096    0.91780   1.00
H1       0.80720    0.76533    0.90380   1.00
H1       0.69280    0.73467    0.90380   1.00
C3a      0.78408    0.75913    0.95870   1.00
C3a      0.71592    0.74087    0.95870   1.00
H11      0.80760    0.76544    0.97250   1.00
H12      0.69240    0.73456    0.97250   1.00
C4       0.75000    0.75000    0.97940   1.00
C4       0.75000    0.75000    0.02060   1.00
C3a      0.71592    0.74087    0.04130   1.00
C3a      0.78408    0.75913    0.04130   1.00
H13      0.69240    0.73456    0.02750   1.00
H14      0.80760    0.76544    0.02750   1.00
C3a      0.71626    0.74096    0.08220   1.00
C3a      0.78374    0.75904    0.08220   1.00
H1       0.69280    0.73467    0.09620   1.00
H1       0.80720    0.76533    0.09620   1.00
C2       0.75000    0.75000    0.10280   1.00
C2       0.75000    0.89720    0.75000   1.00
C3a      0.75904    0.91780    0.78374   1.00
C3a      0.74096    0.91780    0.71626   1.00
H1       0.76533    0.90380    0.80720   1.00
H1       0.73467    0.90380    0.69280   1.00
C3a      0.75913    0.95870    0.78408   1.00
C3a      0.74087    0.95870    0.71592   1.00
H11      0.76544    0.97250    0.80760   1.00
H12      0.73456    0.97250    0.69240   1.00
C4       0.75000    0.97940    0.75000   1.00
C4       0.75000    0.02060    0.75000   1.00
C3a      0.74087    0.04130    0.71592   1.00
C3a      0.75913    0.04130    0.78408   1.00
H13      0.73456    0.02750    0.69240   1.00
H14      0.76544    0.02750    0.80760   1.00
C3a      0.74096    0.08220    0.71626   1.00
C3a      0.75904    0.08220    0.78374   1.00
H1       0.73467    0.09620    0.69280   1.00
H1       0.76533    0.09620    0.80720   1.00
C2       0.75000    0.10280    0.75000   1.00
C2       0.60280    0.75000    0.75000   1.00
C3a      0.58220    0.78374    0.74096   1.00
C3a      0.58220    0.71626    0.75904   1.00
H1       0.59620    0.80720    0.73467   1.00
H1       0.59620    0.69280    0.76533   1.00
C3a      0.54130    0.78408    0.74087   1.00
C3a      0.54130    0.71592    0.75913   1.00
H11      0.52750    0.80760    0.73456   1.00
H12      0.52750    0.69240    0.76544   1.00
C4       0.52060    0.75000    0.75000   1.00
C4       0.47940    0.75000    0.75000   1.00
C3a      0.45870    0.71592    0.75913   1.00
C3a      0.45870    0.78408    0.74087   1.00
H13      0.47250    0.69240    0.76544   1.00
H14      0.47250    0.80760    0.73456   1.00
C3a      0.41780    0.71626    0.75904   1.00
C3a      0.41780    0.78374    0.74096   1.00
H1       0.40380    0.69280    0.76533   1.00
H1       0.40380    0.80720    0.73467   1.00
C2       0.39720    0.75000    0.75000   1.00
C2       0.89720    0.75000    0.75000   1.00
C3a      0.91780    0.78374    0.75904   1.00
C3a      0.91780    0.71626    0.74096   1.00
H1       0.90380    0.80720    0.76533   1.00
H1       0.90380    0.69280    0.73467   1.00
C3a      0.95870    0.78408    0.75913   1.00
C3a      0.95870    0.71592    0.74087   1.00
H11      0.97250    0.80760    0.76544   1.00
H12      0.97250    0.69240    0.73456   1.00
C4       0.97940    0.75000    0.75000   1.00
C4       0.02060    0.75000    0.75000   1.00
C3a      0.04130    0.71592    0.74087   1.00
C3a      0.04130    0.78408    0.75913   1.00
H13      0.02750    0.69240    0.73456   1.00
H14      0.02750    0.80760    0.76544   1.00
C3a      0.08220    0.71626    0.74096   1.00
C3a      0.08220    0.78374    0.75904   1.00
H1       0.09620    0.69280    0.73467   1.00
H1       0.09620    0.80720    0.76533   1.00
C2       0.10280    0.75000    0.75000   1.00
C2       0.75000    0.60280    0.75000   1.00
C3a      0.74096    0.58220    0.78374   1.00
C3a      0.75904    0.58220    0.71626   1.00
H1       0.73467    0.59620    0.80720   1.00
H1       0.76533    0.59620    0.69280   1.00
C3a      0.74087    0.54130    0.78408   1.00
C3a      0.75913    0.54130    0.71592   1.00
H11      0.73456    0.52750    0.80760   1.00
H12      0.76544    0.52750    0.69240   1.00
C4       0.75000    0.52060    0.75000   1.00
C4       0.75000    0.47940    0.75000   1.00
C3a      0.75913    0.45870    0.71592   1.00
C3a      0.74087    0.45870    0.78408   1.00
H13      0.76544    0.47250    0.69240   1.00
H14      0.73456    0.47250    0.80760   1.00
C3a      0.75904    0.41780    0.71626   1.00
C3a      0.74096    0.41780    0.78374   1.00
H1       0.76533    0.40380    0.69280   1.00
H1       0.73467    0.40380    0.80720   1.00
C2       0.75000    0.39720    0.75000   1.00
C2       0.75000    0.75000    0.60280   1.00
C3a      0.78374    0.74096    0.58220   1.00
C3a      0.71626    0.75904    0.58220   1.00
H1       0.80720    0.73467    0.59620   1.00
H1       0.69280    0.76533    0.59620   1.00
C3a      0.78408    0.74087    0.54130   1.00
C3a      0.71592    0.75913    0.54130   1.00
H11      0.80760    0.73456    0.52750   1.00
H12      0.69240    0.76544    0.52750   1.00
C4       0.75000    0.75000    0.52060   1.00
C4       0.75000    0.75000    0.47940   1.00
C3a      0.71592    0.75913    0.45870   1.00
C3a      0.78408    0.74087    0.45870   1.00
H13      0.69240    0.76544    0.47250   1.00
H14      0.80760    0.73456    0.47250   1.00
C3a      0.71626    0.75904    0.41780   1.00
C3a      0.78374    0.74096    0.41780   1.00
H1       0.69280    0.76533    0.40380   1.00
H1       0.80720    0.73467    0.40380   1.00
C2       0.75000    0.75000    0.39720   1.00
C2       0.25000    0.25000    0.89720   1.00
C3a      0.28374    0.25904    0.91780   1.00
C3a      0.21626    0.24096    0.91780   1.00
H1       0.30720    0.26533    0.90380   1.00
H1       0.19280    0.23467    0.90380   1.00
C3a      0.28408    0.25913    0.95870   1.00
C3a      0.21592    0.24087    0.95870   1.00
H11      0.30760    0.26544    0.97250   1.00
H12      0.19240    0.23456    0.97250   1.00
C4       0.25000    0.25000    0.97940   1.00
C4       0.25000    0.25000    0.02060   1.00
C3a      0.21592    0.24087    0.04130   1.00
C3a      0.28408    0.25913    0.04130   1.00
H13      0.19240    0.23456    0.02750   1.00
H14      0.30760    0.26544    0.02750   1.00
C3a      0.21626    0.24096    0.08220   1.00
C3a      0.28374    0.25904    0.08220   1.00
H1       0.19280    0.23467    0.09620   1.00
H1       0.30720    0.26533    0.09620   1.00
C2       0.25000    0.25000    0.10280   1.00
C2       0.25000    0.39720    0.75000   1.00
C3a      0.25904    0.41780    0.78374   1.00
C3a      0.24096    0.41780    0.71626   1.00
H1       0.26533    0.40380    0.80720   1.00
H1       0.23467    0.40380    0.69280   1.00
C3a      0.25913    0.45870    0.78408   1.00
C3a      0.24087    0.45870    0.71592   1.00
H11      0.26544    0.47250    0.80760   1.00
H12      0.23456    0.47250    0.69240   1.00
C4       0.25000    0.47940    0.75000   1.00
C4       0.25000    0.52060    0.75000   1.00
C3a      0.24087    0.54130    0.71592   1.00
C3a      0.25913    0.54130    0.78408   1.00
H13      0.23456    0.52750    0.69240   1.00
H14      0.26544    0.52750    0.80760   1.00
C3a      0.24096    0.58220    0.71626   1.00
C3a      0.25904    0.58220    0.78374   1.00
H1       0.23467    0.59620    0.69280   1.00
H1       0.26533    0.59620    0.80720   1.00
C2       0.25000    0.60280    0.75000   1.00
C2       0.10280    0.25000    0.75000   1.00
C3a      0.08220    0.28374    0.74096   1.00
C3a      0.08220    0.21626    0.75904   1.00
H1       0.09620    0.30720    0.73467   1.00
H1       0.09620    0.19280    0.76533   1.00
C3a      0.04130    0.28408    0.74087   1.00
C3a      0.04130    0.21592    0.75913   1.00
H11      0.02750    0.30760    0.73456   1.00
H12      0.02750    0.19240    0.76544   1.00
C4       0.02060    0.25000    0.75000   1.00
C4       0.97940    0.25000    0.75000   1.00
C3a      0.95870    0.21592    0.75913   1.00
C3a      0.95870    0.28408    0.74087   1.00
H13      0.97250    0.19240    0.76544   1.00
H14      0.97250    0.30760    0.73456   1.00
C3a      0.91780    0.21626    0.75904   1.00
C3a      0.91780    0.28374    0.74096   1.00
H1       0.90380    0.19280    0.76533   1.00
H1       0.90380    0.30720    0.73467   1.00
C2       0.89720    0.25000    0.75000   1.00
C2       0.39720    0.25000    0.75000   1.00
C3a      0.41780    0.28374    0.75904   1.00
C3a      0.41780    0.21626    0.74096   1.00
H1       0.40380    0.30720    0.76533   1.00
H1       0.40380    0.19280    0.73467   1.00
C3a      0.45870    0.28408    0.75913   1.00
C3a      0.45870    0.21592    0.74087   1.00
H11      0.47250    0.30760    0.76544   1.00
H12      0.47250    0.19240    0.73456   1.00
C4       0.47940    0.25000    0.75000   1.00
C4       0.52060    0.25000    0.75000   1.00
C3a      0.54130    0.21592    0.74087   1.00
C3a      0.54130    0.28408    0.75913   1.00
H13      0.52750    0.19240    0.73456   1.00
H14      0.52750    0.30760    0.76544   1.00
C3a      0.58220    0.21626    0.74096   1.00
C3a      0.58220    0.28374    0.75904   1.00
H1       0.59620    0.19280    0.73467   1.00
H1       0.59620    0.30720    0.76533   1.00
C2       0.60280    0.25000    0.75000   1.00
C2       0.25000    0.10280    0.75000   1.00
C3a      0.24096    0.08220    0.78374   1.00
C3a      0.25904    0.08220    0.71626   1.00
H1       0.23467    0.09620    0.80720   1.00
H1       0.26533    0.09620    0.69280   1.00
C3a      0.24087    0.04130    0.78408   1.00
C3a      0.25913    0.04130    0.71592   1.00
H11      0.23456    0.02750    0.80760   1.00
H12      0.26544    0.02750    0.69240   1.00
C4       0.25000    0.02060    0.75000   1.00
C4       0.25000    0.97940    0.75000   1.00
C3a      0.25913    0.95870    0.71592   1.00
C3a      0.24087    0.95870    0.78408   1.00
H13      0.26544    0.97250    0.69240   1.00
H14      0.23456    0.97250    0.80760   1.00
C3a      0.25904    0.91780    0.71626   1.00
C3a      0.24096    0.91780    0.78374   1.00
H1       0.26533    0.90380    0.69280   1.00
H1       0.23467    0.90380    0.80720   1.00
C2       0.25000    0.89720    0.75000   1.00
C2       0.25000    0.25000    0.60280   1.00
C3a      0.28374    0.24096    0.58220   1.00
C3a      0.21626    0.25904    0.58220   1.00
H1       0.30720    0.23467    0.59620   1.00
H1       0.19280    0.26533    0.59620   1.00
C3a      0.28408    0.24087    0.54130   1.00
C3a      0.21592    0.25913    0.54130   1.00
H11      0.30760    0.23456    0.52750   1.00
H12      0.19240    0.26544    0.52750   1.00
C4       0.25000    0.25000    0.52060   1.00
C4       0.25000    0.25000    0.47940   1.00
C3a      0.21592    0.25913    0.45870   1.00
C3a      0.28408    0.24087    0.45870   1.00
H13      0.19240    0.26544    0.47250   1.00
H14      0.30760    0.23456    0.47250   1.00
C3a      0.21626    0.25904    0.41780   1.00
C3a      0.28374    0.24096    0.41780   1.00
H1       0.19280    0.26533    0.40380   1.00
H1       0.30720    0.23467    0.40380   1.00
C2       0.25000    0.25000    0.39720   1.00
C2       0.25000    0.75000    0.39720   1.00
C3a      0.28374    0.75904    0.41780   1.00
C3a      0.21626    0.74096    0.41780   1.00
H1       0.30720    0.76533    0.40380   1.00
H1       0.19280    0.73467    0.40380   1.00
C3a      0.28408    0.75913    0.45870   1.00
C3a      0.21592    0.74087    0.45870   1.00
H11      0.30760    0.76544    0.47250   1.00
H12      0.19240    0.73456    0.47250   1.00
C4       0.25000    0.75000    0.47940   1.00
C4       0.25000    0.75000    0.52060   1.00
C3a      0.21592    0.74087    0.54130   1.00
C3a      0.28408    0.75913    0.54130   1.00
H13      0.19240    0.73456    0.52750   1.00
H14      0.30760    0.76544    0.52750   1.00
C3a      0.21626    0.74096    0.58220   1.00
C3a      0.28374    0.75904    0.58220   1.00
H1       0.19280    0.73467    0.59620   1.00
H1       0.30720    0.76533    0.59620   1.00
C2       0.25000    0.75000    0.60280   1.00
C2       0.25000    0.89720    0.25000   1.00
C3a      0.25904    0.91780    0.28374   1.00
C3a      0.24096    0.91780    0.21626   1.00
H1       0.26533    0.90380    0.30720   1.00
H1       0.23467    0.90380    0.19280   1.00
C3a      0.25913    0.95870    0.28408   1.00
C3a      0.24087    0.95870    0.21592   1.00
H11      0.26544    0.97250    0.30760   1.00
H12      0.23456    0.97250    0.19240   1.00
C4       0.25000    0.97940    0.25000   1.00
C4       0.25000    0.02060    0.25000   1.00
C3a      0.24087    0.04130    0.21592   1.00
C3a      0.25913    0.04130    0.28408   1.00
H13      0.23456    0.02750    0.19240   1.00
H14      0.26544    0.02750    0.30760   1.00
C3a      0.24096    0.08220    0.21626   1.00
C3a      0.25904    0.08220    0.28374   1.00
H1       0.23467    0.09620    0.19280   1.00
H1       0.26533    0.09620    0.30720   1.00
C2       0.25000    0.10280    0.25000   1.00
C2       0.10280    0.75000    0.25000   1.00
C3a      0.08220    0.78374    0.24096   1.00
C3a      0.08220    0.71626    0.25904   1.00
H1       0.09620    0.80720    0.23467   1.00
H1       0.09620    0.69280    0.26533   1.00
C3a      0.04130    0.78408    0.24087   1.00
C3a      0.04130    0.71592    0.25913   1.00
H11      0.02750    0.80760    0.23456   1.00
H12      0.02750    0.69240    0.26544   1.00
C4       0.02060    0.75000    0.25000   1.00
C4       0.97940    0.75000    0.25000   1.00
C3a      0.95870    0.71592    0.25913   1.00
C3a      0.95870    0.78408    0.24087   1.00
H13      0.97250    0.69240    0.26544   1.00
H14      0.97250    0.80760    0.23456   1.00
C3a      0.91780    0.71626    0.25904   1.00
C3a      0.91780    0.78374    0.24096   1.00
H1       0.90380    0.69280    0.26533   1.00
H1       0.90380    0.80720    0.23467   1.00
C2       0.89720    0.75000    0.25000   1.00
C2       0.39720    0.75000    0.25000   1.00
C3a      0.41780    0.78374    0.25904   1.00
C3a      0.41780    0.71626    0.24096   1.00
H1       0.40380    0.80720    0.26533   1.00
H1       0.40380    0.69280    0.23467   1.00
C3a      0.45870    0.78408    0.25913   1.00
C3a      0.45870    0.71592    0.24087   1.00
H11      0.47250    0.80760    0.26544   1.00
H12      0.47250    0.69240    0.23456   1.00
C4       0.47940    0.75000    0.25000   1.00
C4       0.52060    0.75000    0.25000   1.00
C3a      0.54130    0.71592    0.24087   1.00
C3a      0.54130    0.78408    0.25913   1.00
H13      0.52750    0.69240    0.23456   1.00
H14      0.52750    0.80760    0.26544   1.00
C3a      0.58220    0.71626    0.24096   1.00
C3a      0.58220    0.78374    0.25904   1.00
H1       0.59620    0.69280    0.23467   1.00
H1       0.59620    0.80720    0.26533   1.00
C2       0.60280    0.75000    0.25000   1.00
C2       0.25000    0.60280    0.25000   1.00
C3a      0.24096    0.58220    0.28374   1.00
C3a      0.25904    0.58220    0.21626   1.00
H1       0.23467    0.59620    0.30720   1.00
H1       0.26533    0.59620    0.19280   1.00
C3a      0.24087    0.54130    0.28408   1.00
C3a      0.25913    0.54130    0.21592   1.00
H11      0.23456    0.52750    0.30760   1.00
H12      0.26544    0.52750    0.19240   1.00
C4       0.25000    0.52060    0.25000   1.00
C4       0.25000    0.47940    0.25000   1.00
C3a      0.25913    0.45870    0.21592   1.00
C3a      0.24087    0.45870    0.28408   1.00
H13      0.26544    0.47250    0.19240   1.00
H14      0.23456    0.47250    0.30760   1.00
C3a      0.25904    0.41780    0.21626   1.00
C3a      0.24096    0.41780    0.28374   1.00
H1       0.26533    0.40380    0.19280   1.00
H1       0.23467    0.40380    0.30720   1.00
C2       0.25000    0.39720    0.25000   1.00
C2       0.25000    0.75000    0.10280   1.00
C3a      0.28374    0.74096    0.08220   1.00
C3a      0.21626    0.75904    0.08220   1.00
H1       0.30720    0.73467    0.09620   1.00
H1       0.19280    0.76533    0.09620   1.00
C3a      0.28408    0.74087    0.04130   1.00
C3a      0.21592    0.75913    0.04130   1.00
H11      0.30760    0.73456    0.02750   1.00
H12      0.19240    0.76544    0.02750   1.00
C4       0.25000    0.75000    0.02060   1.00
C4       0.25000    0.75000    0.97940   1.00
C3a      0.21592    0.75913    0.95870   1.00
C3a      0.28408    0.74087    0.95870   1.00
H13      0.19240    0.76544    0.97250   1.00
H14      0.30760    0.73456    0.97250   1.00
C3a      0.21626    0.75904    0.91780   1.00
C3a      0.28374    0.74096    0.91780   1.00
H1       0.19280    0.76533    0.90380   1.00
H1       0.30720    0.73467    0.90380   1.00
C2       0.25000    0.75000    0.89720   1.00
C2       0.75000    0.25000    0.39720   1.00
C3a      0.78374    0.25904    0.41780   1.00
C3a      0.71626    0.24096    0.41780   1.00
H1       0.80720    0.26533    0.40380   1.00
H1       0.69280    0.23467    0.40380   1.00
C3a      0.78408    0.25913    0.45870   1.00
C3a      0.71592    0.24087    0.45870   1.00
H11      0.80760    0.26544    0.47250   1.00
H12      0.69240    0.23456    0.47250   1.00
C4       0.75000    0.25000    0.47940   1.00
C4       0.75000    0.25000    0.52060   1.00
C3a      0.71592    0.24087    0.54130   1.00
C3a      0.78408    0.25913    0.54130   1.00
H13      0.69240    0.23456    0.52750   1.00
H14      0.80760    0.26544    0.52750   1.00
C3a      0.71626    0.24096    0.58220   1.00
C3a      0.78374    0.25904    0.58220   1.00
H1       0.69280    0.23467    0.59620   1.00
H1       0.80720    0.26533    0.59620   1.00
C2       0.75000    0.25000    0.60280   1.00
C2       0.75000    0.39720    0.25000   1.00
C3a      0.75904    0.41780    0.28374   1.00
C3a      0.74096    0.41780    0.21626   1.00
H1       0.76533    0.40380    0.30720   1.00
H1       0.73467    0.40380    0.19280   1.00
C3a      0.75913    0.45870    0.28408   1.00
C3a      0.74087    0.45870    0.21592   1.00
H11      0.76544    0.47250    0.30760   1.00
H12      0.73456    0.47250    0.19240   1.00
C4       0.75000    0.47940    0.25000   1.00
C4       0.75000    0.52060    0.25000   1.00
C3a      0.74087    0.54130    0.21592   1.00
C3a      0.75913    0.54130    0.28408   1.00
H13      0.73456    0.52750    0.19240   1.00
H14      0.76544    0.52750    0.30760   1.00
C3a      0.74096    0.58220    0.21626   1.00
C3a      0.75904    0.58220    0.28374   1.00
H1       0.73467    0.59620    0.19280   1.00
H1       0.76533    0.59620    0.30720   1.00
C2       0.75000    0.60280    0.25000   1.00
C2       0.60280    0.25000    0.25000   1.00
C3a      0.58220    0.28374    0.24096   1.00
C3a      0.58220    0.21626    0.25904   1.00
H1       0.59620    0.30720    0.23467   1.00
H1       0.59620    0.19280    0.26533   1.00
C3a      0.54130    0.28408    0.24087   1.00
C3a      0.54130    0.21592    0.25913   1.00
H11      0.52750    0.30760    0.23456   1.00
H12      0.52750    0.19240    0.26544   1.00
C4       0.52060    0.25000    0.25000   1.00
C4       0.47940    0.25000    0.25000   1.00
C3a      0.45870    0.21592    0.25913   1.00
C3a      0.45870    0.28408    0.24087   1.00
H13      0.47250    0.19240    0.26544   1.00
H14      0.47250    0.30760    0.23456   1.00
C3a      0.41780    0.21626    0.25904   1.00
C3a      0.41780    0.28374    0.24096   1.00
H1       0.40380    0.19280    0.26533   1.00
H1       0.40380    0.30720    0.23467   1.00
C2       0.39720    0.25000    0.25000   1.00
C2       0.89720    0.25000    0.25000   1.00
C3a      0.91780    0.28374    0.25904   1.00
C3a      0.91780    0.21626    0.24096   1.00
H1       0.90380    0.30720    0.26533   1.00
H1       0.90380    0.19280    0.23467   1.00
C3a      0.95870    0.28408    0.25913   1.00
C3a      0.95870    0.21592    0.24087   1.00
H11      0.97250    0.30760    0.26544   1.00
H12      0.97250    0.19240    0.23456   1.00
C4       0.97940    0.25000    0.25000   1.00
C4       0.02060    0.25000    0.25000   1.00
C3a      0.04130    0.21592    0.24087   1.00
C3a      0.04130    0.28408    0.25913   1.00
H13      0.02750    0.19240    0.23456   1.00
H14      0.02750    0.30760    0.26544   1.00
C3a      0.08220    0.21626    0.24096   1.00
C3a      0.08220    0.28374    0.25904   1.00
H1       0.09620    0.19280    0.23467   1.00
H1       0.09620    0.30720    0.26533   1.00
C2       0.10280    0.25000    0.25000   1.00
C2       0.75000    0.10280    0.25000   1.00
C3a      0.74096    0.08220    0.28374   1.00
C3a      0.75904    0.08220    0.21626   1.00
H1       0.73467    0.09620    0.30720   1.00
H1       0.76533    0.09620    0.19280   1.00
C3a      0.74087    0.04130    0.28408   1.00
C3a      0.75913    0.04130    0.21592   1.00
H11      0.73456    0.02750    0.30760   1.00
H12      0.76544    0.02750    0.19240   1.00
C4       0.75000    0.02060    0.25000   1.00
C4       0.75000    0.97940    0.25000   1.00
C3a      0.75913    0.95870    0.21592   1.00
C3a      0.74087    0.95870    0.28408   1.00
H13      0.76544    0.97250    0.19240   1.00
H14      0.73456    0.97250    0.30760   1.00
C3a      0.75904    0.91780    0.21626   1.00
C3a      0.74096    0.91780    0.28374   1.00
H1       0.76533    0.90380    0.19280   1.00
H1       0.73467    0.90380    0.30720   1.00
C2       0.75000    0.89720    0.25000   1.00
C2       0.75000    0.25000    0.10280   1.00
C3a      0.78374    0.24096    0.08220   1.00
C3a      0.71626    0.25904    0.08220   1.00
H1       0.80720    0.23467    0.09620   1.00
H1       0.69280    0.26533    0.09620   1.00
C3a      0.78408    0.24087    0.04130   1.00
C3a      0.71592    0.25913    0.04130   1.00
H11      0.80760    0.23456    0.02750   1.00
H12      0.69240    0.26544    0.02750   1.00
C4       0.75000    0.25000    0.02060   1.00
C4       0.75000    0.25000    0.97940   1.00
C3a      0.71592    0.25913    0.95870   1.00
C3a      0.78408    0.24087    0.95870   1.00
H13      0.69240    0.26544    0.97250   1.00
H14      0.80760    0.23456    0.97250   1.00
C3a      0.71626    0.25904    0.91780   1.00
C3a      0.78374    0.24096    0.91780   1.00
H1       0.69280    0.26533    0.90380   1.00
H1       0.80720    0.23467    0.90380   1.00
C2       0.75000    0.25000    0.89720   1.00
C2       1.00000    1.00000    1.14720   1.00
C3a      1.03374    1.00904    1.16780   1.00
C3a      0.96626    0.99096    1.16780   1.00
H1       1.05720    1.01533    1.15380   1.00
H1       0.94280    0.98467    1.15380   1.00
C3a      1.03408    1.00913    1.20870   1.00
C3a      0.96592    0.99087    1.20870   1.00
H11      1.05760    1.01544    1.22250   1.00
H12      0.94240    0.98456    1.22250   1.00
C4       1.00000    1.00000    1.22940   1.00
C4       1.00000    1.00000    0.27060   1.00
C3a      0.96592    0.99087    0.29130   1.00
C3a      1.03408    1.00913    0.29130   1.00
H13      0.94240    0.98456    0.27750   1.00
H14      1.05760    1.01544    0.27750   1.00
C3a      0.96626    0.99096    0.33220   1.00
C3a      1.03374    1.00904    0.33220   1.00
H1       0.94280    0.98467    0.34620   1.00
H1       1.05720    1.01533    0.34620   1.00
C2       1.00000    1.00000    0.35280   1.00
C2       1.00000    1.14720    1.00000   1.00
C3a      1.00904    1.16780    1.03374   1.00
C3a      0.99096    1.16780    0.96626   1.00
H1       1.01533    1.15380    1.05720   1.00
H1       0.98467    1.15380    0.94280   1.00
C3a      1.00913    1.20870    1.03408   1.00
C3a      0.99087    1.20870    0.96592   1.00
H11      1.01544    1.22250    1.05760   1.00
H12      0.98456    1.22250    0.94240   1.00
C4       1.00000    1.22940    1.00000   1.00
C4       1.00000    0.27060    1.00000   1.00
C3a      0.99087    0.29130    0.96592   1.00
C3a      1.00913    0.29130    1.03408   1.00
H13      0.98456    0.27750    0.94240   1.00
H14      1.01544    0.27750    1.05760   1.00
C3a      0.99096    0.33220    0.96626   1.00
C3a      1.00904    0.33220    1.03374   1.00
H1       0.98467    0.34620    0.94280   1.00
H1       1.01533    0.34620    1.05720   1.00
C2       1.00000    0.35280    1.00000   1.00
C2       0.85280    1.00000    1.00000   1.00
C3a      0.83220    1.03374    0.99096   1.00
C3a      0.83220    0.96626    1.00904   1.00
H1       0.84620    1.05720    0.98467   1.00
H1       0.84620    0.94280    1.01533   1.00
C3a      0.79130    1.03408    0.99087   1.00
C3a      0.79130    0.96592    1.00913   1.00
H11      0.77750    1.05760    0.98456   1.00
H12      0.77750    0.94240    1.01544   1.00
C4       0.77060    1.00000    1.00000   1.00
C4       0.72940    1.00000    1.00000   1.00
C3a      0.70870    0.96592    1.00913   1.00
C3a      0.70870    1.03408    0.99087   1.00
H13      0.72250    0.94240    1.01544   1.00
H14      0.72250    1.05760    0.98456   1.00
C3a      0.66780    0.96626    1.00904   1.00
C3a      0.66780    1.03374    0.99096   1.00
H1       0.65380    0.94280    1.01533   1.00
H1       0.65380    1.05720    0.98467   1.00
C2       0.64720    1.00000    1.00000   1.00
C2       1.14720    1.00000    1.00000   1.00
C3a      1.16780    1.03374    1.00904   1.00
C3a      1.16780    0.96626    0.99096   1.00
H1       1.15380    1.05720    1.01533   1.00
H1       1.15380    0.94280    0.98467   1.00
C3a      1.20870    1.03408    1.00913   1.00
C3a      1.20870    0.96592    0.99087   1.00
H11      1.22250    1.05760    1.01544   1.00
H12      1.22250    0.94240    0.98456   1.00
C4       1.22940    1.00000    1.00000   1.00
C4       0.27060    1.00000    1.00000   1.00
C3a      0.29130    0.96592    0.99087   1.00
C3a      0.29130    1.03408    1.00913   1.00
H13      0.27750    0.94240    0.98456   1.00
H14      0.27750    1.05760    1.01544   1.00
C3a      0.33220    0.96626    0.99096   1.00
C3a      0.33220    1.03374    1.00904   1.00
H1       0.34620    0.94280    0.98467   1.00
H1       0.34620    1.05720    1.01533   1.00
C2       0.35280    1.00000    1.00000   1.00
C2       1.00000    0.85280    1.00000   1.00
C3a      0.99096    0.83220    1.03374   1.00
C3a      1.00904    0.83220    0.96626   1.00
H1       0.98467    0.84620    1.05720   1.00
H1       1.01533    0.84620    0.94280   1.00
C3a      0.99087    0.79130    1.03408   1.00
C3a      1.00913    0.79130    0.96592   1.00
H11      0.98456    0.77750    1.05760   1.00
H12      1.01544    0.77750    0.94240   1.00
C4       1.00000    0.77060    1.00000   1.00
C4       1.00000    0.72940    1.00000   1.00
C3a      1.00913    0.70870    0.96592   1.00
C3a      0.99087    0.70870    1.03408   1.00
H13      1.01544    0.72250    0.94240   1.00
H14      0.98456    0.72250    1.05760   1.00
C3a      1.00904    0.66780    0.96626   1.00
C3a      0.99096    0.66780    1.03374   1.00
H1       1.01533    0.65380    0.94280   1.00
H1       0.98467    0.65380    1.05720   1.00
C2       1.00000    0.64720    1.00000   1.00
C2       1.00000    1.00000    0.85280   1.00
C3a      1.03374    0.99096    0.83220   1.00
C3a      0.96626    1.00904    0.83220   1.00
H1       1.05720    0.98467    0.84620   1.00
H1       0.94280    1.01533    0.84620   1.00
C3a      1.03408    0.99087    0.79130   1.00
C3a      0.96592    1.00913    0.79130   1.00
H11      1.05760    0.98456    0.77750   1.00
H12      0.94240    1.01544    0.77750   1.00
C4       1.00000    1.00000    0.77060   1.00
C4       1.00000    1.00000    0.72940   1.00
C3a      0.96592    1.00913    0.70870   1.00
C3a      1.03408    0.99087    0.70870   1.00
H13      0.94240    1.01544    0.72250   1.00
H14      1.05760    0.98456    0.72250   1.00
C3a      0.96626    1.00904    0.66780   1.00
C3a      1.03374    0.99096    0.66780   1.00
H1       0.94280    1.01533    0.65380   1.00
H1       1.05720    0.98467    0.65380   1.00
C2       1.00000    1.00000    0.64720   1.00
C2       0.50000    0.50000    1.14720   1.00
C3a      0.53374    0.50904    1.16780   1.00
C3a      0.46626    0.49096    1.16780   1.00
H1       0.55720    0.51533    1.15380   1.00
H1       0.44280    0.48467    1.15380   1.00
C3a      0.53408    0.50913    1.20870   1.00
C3a      0.46592    0.49087    1.20870   1.00
H11      0.55760    0.51544    1.22250   1.00
H12      0.44240    0.48456    1.22250   1.00
C4       0.50000    0.50000    1.22940   1.00
C4       0.50000    0.50000    0.27060   1.00
C3a      0.46592    0.49087    0.29130   1.00
C3a      0.53408    0.50913    0.29130   1.00
H13      0.44240    0.48456    0.27750   1.00
H14      0.55760    0.51544    0.27750   1.00
C3a      0.46626    0.49096    0.33220   1.00
C3a      0.53374    0.50904    0.33220   1.00
H1       0.44280    0.48467    0.34620   1.00
H1       0.55720    0.51533    0.34620   1.00
C2       0.50000    0.50000    0.35280   1.00
C2       0.50000    0.64720    1.00000   1.00
C3a      0.50904    0.66780    1.03374   1.00
C3a      0.49096    0.66780    0.96626   1.00
H1       0.51533    0.65380    1.05720   1.00
H1       0.48467    0.65380    0.94280   1.00
C3a      0.50913    0.70870    1.03408   1.00
C3a      0.49087    0.70870    0.96592   1.00
H11      0.51544    0.72250    1.05760   1.00
H12      0.48456    0.72250    0.94240   1.00
C4       0.50000    0.72940    1.00000   1.00
C4       0.50000    0.77060    1.00000   1.00
C3a      0.49087    0.79130    0.96592   1.00
C3a      0.50913    0.79130    1.03408   1.00
H13      0.48456    0.77750    0.94240   1.00
H14      0.51544    0.77750    1.05760   1.00
C3a      0.49096    0.83220    0.96626   1.00
C3a      0.50904    0.83220    1.03374   1.00
H1       0.48467    0.84620    0.94280   1.00
H1       0.51533    0.84620    1.05720   1.00
C2       0.50000    0.85280    1.00000   1.00
C2       0.35280    0.50000    1.00000   1.00
C3a      0.33220    0.53374    0.99096   1.00
C3a      0.33220    0.46626    1.00904   1.00
H1       0.34620    0.55720    0.98467   1.00
H1       0.34620    0.44280    1.01533   1.00
C3a      0.29130    0.53408    0.99087   1.00
C3a      0.29130    0.46592    1.00913   1.00
H11      0.27750    0.55760    0.98456   1.00
H12      0.27750    0.44240    1.01544   1.00
C4       0.27060    0.50000    1.00000   1.00
C4       1.22940    0.50000    1.00000   1.00
C3a      1.20870    0.46592    1.00913   1.00
C3a      1.20870    0.53408    0.99087   1.00
H13      1.22250    0.44240    1.01544   1.00
H14      1.22250    0.55760    0.98456   1.00
C3a      1.16780    0.46626    1.00904   1.00
C3a      1.16780    0.53374    0.99096   1.00
H1       1.15380    0.44280    1.01533   1.00
H1       1.15380    0.55720    0.98467   1.00
C2       1.14720    0.50000    1.00000   1.00
C2       0.64720    0.50000    1.00000   1.00
C3a      0.66780    0.53374    1.00904   1.00
C3a      0.66780    0.46626    0.99096   1.00
H1       0.65380    0.55720    1.01533   1.00
H1       0.65380    0.44280    0.98467   1.00
C3a      0.70870    0.53408    1.00913   1.00
C3a      0.70870    0.46592    0.99087   1.00
H11      0.72250    0.55760    1.01544   1.00
H12      0.72250    0.44240    0.98456   1.00
C4       0.72940    0.50000    1.00000   1.00
C4       0.77060    0.50000    1.00000   1.00
C3a      0.79130    0.46592    0.99087   1.00
C3a      0.79130    0.53408    1.00913   1.00
H13      0.77750    0.44240    0.98456   1.00
H14      0.77750    0.55760    1.01544   1.00
C3a      0.83220    0.46626    0.99096   1.00
C3a      0.83220    0.53374    1.00904   1.00
H1       0.84620    0.44280    0.98467   1.00
H1       0.84620    0.55720    1.01533   1.00
C2       0.85280    0.50000    1.00000   1.00
C2       0.50000    0.35280    1.00000   1.00
C3a      0.49096    0.33220    1.03374   1.00
C3a      0.50904    0.33220    0.96626   1.00
H1       0.48467    0.34620    1.05720   1.00
H1       0.51533    0.34620    0.94280   1.00
C3a      0.49087    0.29130    1.03408   1.00
C3a      0.50913    0.29130    0.96592   1.00
H11      0.48456    0.27750    1.05760   1.00
H12      0.51544    0.27750    0.94240   1.00
C4       0.50000    0.27060    1.00000   1.00
C4       0.50000    1.22940    1.00000   1.00
C3a      0.50913    1.20870    0.96592   1.00
C3a      0.49087    1.20870    1.03408   1.00
H13      0.51544    1.22250    0.94240   1.00
H14      0.48456    1.22250    1.05760   1.00
C3a      0.50904    1.16780    0.96626   1.00
C3a      0.49096    1.16780    1.03374   1.00
H1       0.51533    1.15380    0.94280   1.00
H1       0.48467    1.15380    1.05720   1.00
C2       0.50000    1.14720    1.00000   1.00
C2       0.50000    0.50000    0.85280   1.00
C3a      0.53374    0.49096    0.83220   1.00
C3a      0.46626    0.50904    0.83220   1.00
H1       0.55720    0.48467    0.84620   1.00
H1       0.44280    0.51533    0.84620   1.00
C3a      0.53408    0.49087    0.79130   1.00
C3a      0.46592    0.50913    0.79130   1.00
H11      0.55760    0.48456    0.77750   1.00
H12      0.44240    0.51544    0.77750   1.00
C4       0.50000    0.50000    0.77060   1.00
C4       0.50000    0.50000    0.72940   1.00
C3a      0.46592    0.50913    0.70870   1.00
C3a      0.53408    0.49087    0.70870   1.00
H13      0.44240    0.51544    0.72250   1.00
H14      0.55760    0.48456    0.72250   1.00
C3a      0.46626    0.50904    0.66780   1.00
C3a      0.53374    0.49096    0.66780   1.00
H1       0.44280    0.51533    0.65380   1.00
H1       0.55720    0.48467    0.65380   1.00
C2       0.50000    0.50000    0.64720   1.00
C2       0.50000    1.00000    0.64720   1.00
C3a      0.53374    1.00904    0.66780   1.00
C3a      0.46626    0.99096    0.66780   1.00
H1       0.55720    1.01533    0.65380   1.00
H1       0.44280    0.98467    0.65380   1.00
C3a      0.53408    1.00913    0.70870   1.00
C3a      0.46592    0.99087    0.70870   1.00
H11      0.55760    1.01544    0.72250   1.00
H12      0.44240    0.98456    0.72250   1.00
C4       0.50000    1.00000    0.72940   1.00
C4       0.50000    1.00000    0.77060   1.00
C3a      0.46592    0.99087    0.79130   1.00
C3a      0.53408    1.00913    0.79130   1.00
H13      0.44240    0.98456    0.77750   1.00
H14      0.55760    1.01544    0.77750   1.00
C3a      0.46626    0.99096    0.83220   1.00
C3a      0.53374    1.00904    0.83220   1.00
H1       0.44280    0.98467    0.84620   1.00
H1       0.55720    1.01533    0.84620   1.00
C2       0.50000    1.00000    0.85280   1.00
C2       0.50000    1.14720    0.50000   1.00
C3a      0.50904    1.16780    0.53374   1.00
C3a      0.49096    1.16780    0.46626   1.00
H1       0.51533    1.15380    0.55720   1.00
H1       0.48467    1.15380    0.44280   1.00
C3a      0.50913    1.20870    0.53408   1.00
C3a      0.49087    1.20870    0.46592   1.00
H11      0.51544    1.22250    0.55760   1.00
H12      0.48456    1.22250    0.44240   1.00
C4       0.50000    1.22940    0.50000   1.00
C4       0.50000    0.27060    0.50000   1.00
C3a      0.49087    0.29130    0.46592   1.00
C3a      0.50913    0.29130    0.53408   1.00
H13      0.48456    0.27750    0.44240   1.00
H14      0.51544    0.27750    0.55760   1.00
C3a      0.49096    0.33220    0.46626   1.00
C3a      0.50904    0.33220    0.53374   1.00
H1       0.48467    0.34620    0.44280   1.00
H1       0.51533    0.34620    0.55720   1.00
C2       0.50000    0.35280    0.50000   1.00
C2       0.35280    1.00000    0.50000   1.00
C3a      0.33220    1.03374    0.49096   1.00
C3a      0.33220    0.96626    0.50904   1.00
H1       0.34620    1.05720    0.48467   1.00
H1       0.34620    0.94280    0.51533   1.00
C3a      0.29130    1.03408    0.49087   1.00
C3a      0.29130    0.96592    0.50913   1.00
H11      0.27750    1.05760    0.48456   1.00
H12      0.27750    0.94240    0.51544   1.00
C4       0.27060    1.00000    0.50000   1.00
C4       1.22940    1.00000    0.50000   1.00
C3a      1.20870    0.96592    0.50913   1.00
C3a      1.20870    1.03408    0.49087   1.00
H13      1.22250    0.94240    0.51544   1.00
H14      1.22250    1.05760    0.48456   1.00
C3a      1.16780    0.96626    0.50904   1.00
C3a      1.16780    1.03374    0.49096   1.00
H1       1.15380    0.94280    0.51533   1.00
H1       1.15380    1.05720    0.48467   1.00
C2       1.14720    1.00000    0.50000   1.00
C2       0.64720    1.00000    0.50000   1.00
C3a      0.66780    1.03374    0.50904   1.00
C3a      0.66780    0.96626    0.49096   1.00
H1       0.65380    1.05720    0.51533   1.00
H1       0.65380    0.94280    0.48467   1.00
C3a      0.70870    1.03408    0.50913   1.00
C3a      0.70870    0.96592    0.49087   1.00
H11      0.72250    1.05760    0.51544   1.00
H12      0.72250    0.94240    0.48456   1.00
C4       0.72940    1.00000    0.50000   1.00
C4       0.77060    1.00000    0.50000   1.00
C3a      0.79130    0.96592    0.49087   1.00
C3a      0.79130    1.03408    0.50913   1.00
H13      0.77750    0.94240    0.48456   1.00
H14      0.77750    1.05760    0.51544   1.00
C3a      0.83220    0.96626    0.49096   1.00
C3a      0.83220    1.03374    0.50904   1.00
H1       0.84620    0.94280    0.48467   1.00
H1       0.84620    1.05720    0.51533   1.00
C2       0.85280    1.00000    0.50000   1.00
C2       0.50000    0.85280    0.50000   1.00
C3a      0.49096    0.83220    0.53374   1.00
C3a      0.50904    0.83220    0.46626   1.00
H1       0.48467    0.84620    0.55720   1.00
H1       0.51533    0.84620    0.44280   1.00
C3a      0.49087    0.79130    0.53408   1.00
C3a      0.50913    0.79130    0.46592   1.00
H11      0.48456    0.77750    0.55760   1.00
H12      0.51544    0.77750    0.44240   1.00
C4       0.50000    0.77060    0.50000   1.00
C4       0.50000    0.72940    0.50000   1.00
C3a      0.50913    0.70870    0.46592   1.00
C3a      0.49087    0.70870    0.53408   1.00
H13      0.51544    0.72250    0.44240   1.00
H14      0.48456    0.72250    0.55760   1.00
C3a      0.50904    0.66780    0.46626   1.00
C3a      0.49096    0.66780    0.53374   1.00
H1       0.51533    0.65380    0.44280   1.00
H1       0.48467    0.65380    0.55720   1.00
C2       0.50000    0.64720    0.50000   1.00
C2       0.50000    1.00000    0.35280   1.00
C3a      0.53374    0.99096    0.33220   1.00
C3a      0.46626    1.00904    0.33220   1.00
H1       0.55720    0.98467    0.34620   1.00
H1       0.44280    1.01533    0.34620   1.00
C3a      0.53408    0.99087    0.29130   1.00
C3a      0.46592    1.00913    0.29130   1.00
H11      0.55760    0.98456    0.27750   1.00
H12      0.44240    1.01544    0.27750   1.00
C4       0.50000    1.00000    0.27060   1.00
C4       0.50000    1.00000    1.22940   1.00
C3a      0.46592    1.00913    1.20870   1.00
C3a      0.53408    0.99087    1.20870   1.00
H13      0.44240    1.01544    1.22250   1.00
H14      0.55760    0.98456    1.22250   1.00
C3a      0.46626    1.00904    1.16780   1.00
C3a      0.53374    0.99096    1.16780   1.00
H1       0.44280    1.01533    1.15380   1.00
H1       0.55720    0.98467    1.15380   1.00
C2       0.50000    1.00000    1.14720   1.00
C2       1.00000    0.50000    0.64720   1.00
C3a      1.03374    0.50904    0.66780   1.00
C3a      0.96626    0.49096    0.66780   1.00
H1       1.05720    0.51533    0.65380   1.00
H1       0.94280    0.48467    0.65380   1.00
C3a      1.03408    0.50913    0.70870   1.00
C3a      0.96592    0.49087    0.70870   1.00
H11      1.05760    0.51544    0.72250   1.00
H12      0.94240    0.48456    0.72250   1.00
C4       1.00000    0.50000    0.72940   1.00
C4       1.00000    0.50000    0.77060   1.00
C3a      0.96592    0.49087    0.79130   1.00
C3a      1.03408    0.50913    0.79130   1.00
H13      0.94240    0.48456    0.77750   1.00
H14      1.05760    0.51544    0.77750   1.00
C3a      0.96626    0.49096    0.83220   1.00
C3a      1.03374    0.50904    0.83220   1.00
H1       0.94280    0.48467    0.84620   1.00
H1       1.05720    0.51533    0.84620   1.00
C2       1.00000    0.50000    0.85280   1.00
C2       1.00000    0.64720    0.50000   1.00
C3a      1.00904    0.66780    0.53374   1.00
C3a      0.99096    0.66780    0.46626   1.00
H1       1.01533    0.65380    0.55720   1.00
H1       0.98467    0.65380    0.44280   1.00
C3a      1.00913    0.70870    0.53408   1.00
C3a      0.99087    0.70870    0.46592   1.00
H11      1.01544    0.72250    0.55760   1.00
H12      0.98456    0.72250    0.44240   1.00
C4       1.00000    0.72940    0.50000   1.00
C4       1.00000    0.77060    0.50000   1.00
C3a      0.99087    0.79130    0.46592   1.00
C3a      1.00913    0.79130    0.53408   1.00
H13      0.98456    0.77750    0.44240   1.00
H14      1.01544    0.77750    0.55760   1.00
C3a      0.99096    0.83220    0.46626   1.00
C3a      1.00904    0.83220    0.53374   1.00
H1       0.98467    0.84620    0.44280   1.00
H1       1.01533    0.84620    0.55720   1.00
C2       1.00000    0.85280    0.50000   1.00
C2       0.85280    0.50000    0.50000   1.00
C3a      0.83220    0.53374    0.49096   1.00
C3a      0.83220    0.46626    0.50904   1.00
H1       0.84620    0.55720    0.48467   1.00
H1       0.84620    0.44280    0.51533   1.00
C3a      0.79130    0.53408    0.49087   1.00
C3a      0.79130    0.46592    0.50913   1.00
H11      0.77750    0.55760    0.48456   1.00
H12      0.77750    0.44240    0.51544   1.00
C4       0.77060    0.50000    0.50000   1.00
C4       0.72940    0.50000    0.50000   1.00
C3a      0.70870    0.46592    0.50913   1.00
C3a      0.70870    0.53408    0.49087   1.00
H13      0.72250    0.44240    0.51544   1.00
H14      0.72250    0.55760    0.48456   1.00
C3a      0.66780    0.46626    0.50904   1.00
C3a      0.66780    0.53374    0.49096   1.00
H1       0.65380    0.44280    0.51533   1.00
H1       0.65380    0.55720    0.48467   1.00
C2       0.64720    0.50000    0.50000   1.00
C2       1.14720    0.50000    0.50000   1.00
C3a      1.16780    0.53374    0.50904   1.00
C3a      1.16780    0.46626    0.49096   1.00
H1       1.15380    0.55720    0.51533   1.00
H1       1.15380    0.44280    0.48467   1.00
C3a      1.20870    0.53408    0.50913   1.00
C3a      1.20870    0.46592    0.49087   1.00
H11      1.22250    0.55760    0.51544   1.00
H12      1.22250    0.44240    0.48456   1.00
C4       1.22940    0.50000    0.50000   1.00
C4       0.27060    0.50000    0.50000   1.00
C3a      0.29130    0.46592    0.49087   1.00
C3a      0.29130    0.53408    0.50913   1.00
H13      0.27750    0.44240    0.48456   1.00
H14      0.27750    0.55760    0.51544   1.00
C3a      0.33220    0.46626    0.49096   1.00
C3a      0.33220    0.53374    0.50904   1.00
H1       0.34620    0.44280    0.48467   1.00
H1       0.34620    0.55720    0.51533   1.00
C2       0.35280    0.50000    0.50000   1.00
C2       1.00000    0.35280    0.50000   1.00
C3a      0.99096    0.33220    0.53374   1.00
C3a      1.00904    0.33220    0.46626   1.00
H1       0.98467    0.34620    0.55720   1.00
H1       1.01533    0.34620    0.44280   1.00
C3a      0.99087    0.29130    0.53408   1.00
C3a      1.00913    0.29130    0.46592   1.00
H11      0.98456    0.27750    0.55760   1.00
H12      1.01544    0.27750    0.44240   1.00
C4       1.00000    0.27060    0.50000   1.00
C4       1.00000    1.22940    0.50000   1.00
C3a      1.00913    1.20870    0.46592   1.00
C3a      0.99087    1.20870    0.53408   1.00
H13      1.01544    1.22250    0.44240   1.00
H14      0.98456    1.22250    0.55760   1.00
C3a      1.00904    1.16780    0.46626   1.00
C3a      0.99096    1.16780    0.53374   1.00
H1       1.01533    1.15380    0.44280   1.00
H1       0.98467    1.15380    0.55720   1.00
C2       1.00000    1.14720    0.50000   1.00
C2       1.00000    0.50000    0.35280   1.00
C3a      1.03374    0.49096    0.33220   1.00
C3a      0.96626    0.50904    0.33220   1.00
H1       1.05720    0.48467    0.34620   1.00
H1       0.94280    0.51533    0.34620   1.00
C3a      1.03408    0.49087    0.29130   1.00
C3a      0.96592    0.50913    0.29130   1.00
H11      1.05760    0.48456    0.27750   1.00
H12      0.94240    0.51544    0.27750   1.00
C4       1.00000    0.50000    0.27060   1.00
C4       1.00000    0.50000    1.22940   1.00
C3a      0.96592    0.50913    1.20870   1.00
C3a      1.03408    0.49087    1.20870   1.00
H13      0.94240    0.51544    1.22250   1.00
H14      1.05760    0.48456    1.22250   1.00
C3a      0.96626    0.50904    1.16780   1.00
C3a      1.03374    0.49096    1.16780   1.00
H1       0.94280    0.51533    1.15380   1.00
H1       1.05720    0.48467    1.15380   1.00
C2       1.00000    0.50000    1.14720   1.00
