data_IRMOF10_SG202_interpen_Ligand1lp_label_g.

_audit_creation_method             'generated by an auxiliary program of Tobunporous'

_symmetry_space_group_name_H-M     'P 1'
_symmetry_Int_Tables_number        1
_symmetry_cell_setting             triclinic

_cell_length_a                    34.2800
_cell_length_b                    34.2800
_cell_length_c                    34.2800
_cell_angle_alpha                 90.0000
_cell_angle_beta                  90.0000
_cell_angle_gamma                 90.0000

loop_
_atom_site_label
_atom_site_fract_x
_atom_site_fract_y
_atom_site_fract_z
_atom_site_occupancy
O1       0.75000    0.75000    0.75000   1.00
Zn1      0.71720    0.78280    0.78280   1.00
Zn1      0.78280    0.71720    0.78280   1.00
Zn1      0.78280    0.78280    0.71720   1.00
Zn1      0.71720    0.71720    0.71720   1.00
O2       0.72650    0.77350    0.83820   1.00
O2       0.72650    0.83820    0.77350   1.00
O2       0.66180    0.77350    0.77350   1.00
O2       0.77350    0.72650    0.83820   1.00
O2       0.83820    0.72650    0.77350   1.00
O2       0.77350    0.66180    0.77350   1.00
O2       0.77350    0.83820    0.72650   1.00
O2       0.83820    0.77350    0.72650   1.00
O2       0.77350    0.77350    0.66180   1.00
O2       0.66180    0.72650    0.72650   1.00
O2       0.72650    0.66180    0.72650   1.00
O2       0.72650    0.72650    0.66180   1.00
C1       0.75000    0.75000    0.85520   1.00
C1       0.75000    0.85520    0.75000   1.00
C1       0.64480    0.75000    0.75000   1.00
C1       0.85520    0.75000    0.75000   1.00
C1       0.75000    0.64480    0.75000   1.00
C1       0.75000    0.75000    0.64480   1.00
O1       0.25000    0.25000    0.75000   1.00
Zn1      0.21720    0.28280    0.78280   1.00
Zn1      0.28280    0.21720    0.78280   1.00
Zn1      0.28280    0.28280    0.71720   1.00
Zn1      0.21720    0.21720    0.71720   1.00
O2       0.22650    0.27350    0.83820   1.00
O2       0.22650    0.33820    0.77350   1.00
O2       0.16180    0.27350    0.77350   1.00
O2       0.27350    0.22650    0.83820   1.00
O2       0.33820    0.22650    0.77350   1.00
O2       0.27350    0.16180    0.77350   1.00
O2       0.27350    0.33820    0.72650   1.00
O2       0.33820    0.27350    0.72650   1.00
O2       0.27350    0.27350    0.66180   1.00
O2       0.16180    0.22650    0.72650   1.00
O2       0.22650    0.16180    0.72650   1.00
O2       0.22650    0.22650    0.66180   1.00
C1       0.25000    0.25000    0.85520   1.00
C1       0.25000    0.35520    0.75000   1.00
C1       0.14480    0.25000    0.75000   1.00
C1       0.35520    0.25000    0.75000   1.00
C1       0.25000    0.14480    0.75000   1.00
C1       0.25000    0.25000    0.64480   1.00
O1       0.25000    0.75000    0.25000   1.00
Zn1      0.21720    0.78280    0.28280   1.00
Zn1      0.28280    0.71720    0.28280   1.00
Zn1      0.28280    0.78280    0.21720   1.00
Zn1      0.21720    0.71720    0.21720   1.00
O2       0.22650    0.77350    0.33820   1.00
O2       0.22650    0.83820    0.27350   1.00
O2       0.16180    0.77350    0.27350   1.00
O2       0.27350    0.72650    0.33820   1.00
O2       0.33820    0.72650    0.27350   1.00
O2       0.27350    0.66180    0.27350   1.00
O2       0.27350    0.83820    0.22650   1.00
O2       0.33820    0.77350    0.22650   1.00
O2       0.27350    0.77350    0.16180   1.00
O2       0.16180    0.72650    0.22650   1.00
O2       0.22650    0.66180    0.22650   1.00
O2       0.22650    0.72650    0.16180   1.00
C1       0.25000    0.75000    0.35520   1.00
C1       0.25000    0.85520    0.25000   1.00
C1       0.14480    0.75000    0.25000   1.00
C1       0.35520    0.75000    0.25000   1.00
C1       0.25000    0.64480    0.25000   1.00
C1       0.25000    0.75000    0.14480   1.00
O1       0.75000    0.25000    0.25000   1.00
Zn1      0.71720    0.28280    0.28280   1.00
Zn1      0.78280    0.21720    0.28280   1.00
Zn1      0.78280    0.28280    0.21720   1.00
Zn1      0.71720    0.21720    0.21720   1.00
O2       0.72650    0.27350    0.33820   1.00
O2       0.72650    0.33820    0.27350   1.00
O2       0.66180    0.27350    0.27350   1.00
O2       0.77350    0.22650    0.33820   1.00
O2       0.83820    0.22650    0.27350   1.00
O2       0.77350    0.16180    0.27350   1.00
O2       0.77350    0.33820    0.22650   1.00
O2       0.83820    0.27350    0.22650   1.00
O2       0.77350    0.27350    0.16180   1.00
O2       0.66180    0.22650    0.22650   1.00
O2       0.72650    0.16180    0.22650   1.00
O2       0.72650    0.22650    0.16180   1.00
C1       0.75000    0.25000    0.35520   1.00
C1       0.75000    0.35520    0.25000   1.00
C1       0.64480    0.25000    0.25000   1.00
C1       0.85520    0.25000    0.25000   1.00
C1       0.75000    0.14480    0.25000   1.00
C1       0.75000    0.25000    0.14480   1.00
O1       0.25000    0.25000    0.25000   1.00
Zn1      0.28280    0.21720    0.21720   1.00
Zn1      0.21720    0.28280    0.21720   1.00
Zn1      0.21720    0.21720    0.28280   1.00
Zn1      0.28280    0.28280    0.28280   1.00
O2       0.27350    0.22650    0.16180   1.00
O2       0.27350    0.16180    0.22650   1.00
O2       0.33820    0.22650    0.22650   1.00
O2       0.22650    0.27350    0.16180   1.00
O2       0.16180    0.27350    0.22650   1.00
O2       0.22650    0.33820    0.22650   1.00
O2       0.22650    0.16180    0.27350   1.00
O2       0.16180    0.22650    0.27350   1.00
O2       0.22650    0.22650    0.33820   1.00
O2       0.33820    0.27350    0.27350   1.00
O2       0.27350    0.33820    0.27350   1.00
O2       0.27350    0.27350    0.33820   1.00
C1       0.25000    0.25000    0.14480   1.00
C1       0.25000    0.14480    0.25000   1.00
C1       0.35520    0.25000    0.25000   1.00
C1       0.14480    0.25000    0.25000   1.00
C1       0.25000    0.35520    0.25000   1.00
C1       0.25000    0.25000    0.35520   1.00
O1       0.75000    0.75000    0.25000   1.00
Zn1      0.78280    0.71720    0.21720   1.00
Zn1      0.71720    0.78280    0.21720   1.00
Zn1      0.71720    0.71720    0.28280   1.00
Zn1      0.78280    0.78280    0.28280   1.00
O2       0.77350    0.72650    0.16180   1.00
O2       0.77350    0.66180    0.22650   1.00
O2       0.83820    0.72650    0.22650   1.00
O2       0.72650    0.77350    0.16180   1.00
O2       0.66180    0.77350    0.22650   1.00
O2       0.72650    0.83820    0.22650   1.00
O2       0.72650    0.66180    0.27350   1.00
O2       0.66180    0.72650    0.27350   1.00
O2       0.72650    0.72650    0.33820   1.00
O2       0.83820    0.77350    0.27350   1.00
O2       0.77350    0.83820    0.27350   1.00
O2       0.77350    0.77350    0.33820   1.00
C1       0.75000    0.75000    0.14480   1.00
C1       0.75000    0.64480    0.25000   1.00
C1       0.85520    0.75000    0.25000   1.00
C1       0.64480    0.75000    0.25000   1.00
C1       0.75000    0.85520    0.25000   1.00
C1       0.75000    0.75000    0.35520   1.00
O1       0.75000    0.25000    0.75000   1.00
Zn1      0.78280    0.21720    0.71720   1.00
Zn1      0.71720    0.28280    0.71720   1.00
Zn1      0.71720    0.21720    0.78280   1.00
Zn1      0.78280    0.28280    0.78280   1.00
O2       0.77350    0.22650    0.66180   1.00
O2       0.77350    0.16180    0.72650   1.00
O2       0.83820    0.22650    0.72650   1.00
O2       0.72650    0.27350    0.66180   1.00
O2       0.66180    0.27350    0.72650   1.00
O2       0.72650    0.33820    0.72650   1.00
O2       0.72650    0.16180    0.77350   1.00
O2       0.66180    0.22650    0.77350   1.00
O2       0.72650    0.22650    0.83820   1.00
O2       0.83820    0.27350    0.77350   1.00
O2       0.77350    0.33820    0.77350   1.00
O2       0.77350    0.27350    0.83820   1.00
C1       0.75000    0.25000    0.64480   1.00
C1       0.75000    0.14480    0.75000   1.00
C1       0.85520    0.25000    0.75000   1.00
C1       0.64480    0.25000    0.75000   1.00
C1       0.75000    0.35520    0.75000   1.00
C1       0.75000    0.25000    0.85520   1.00
O1       0.25000    0.75000    0.75000   1.00
Zn1      0.28280    0.71720    0.71720   1.00
Zn1      0.21720    0.78280    0.71720   1.00
Zn1      0.21720    0.71720    0.78280   1.00
Zn1      0.28280    0.78280    0.78280   1.00
O2       0.27350    0.72650    0.66180   1.00
O2       0.27350    0.66180    0.72650   1.00
O2       0.33820    0.72650    0.72650   1.00
O2       0.22650    0.77350    0.66180   1.00
O2       0.16180    0.77350    0.72650   1.00
O2       0.22650    0.83820    0.72650   1.00
O2       0.22650    0.66180    0.77350   1.00
O2       0.16180    0.72650    0.77350   1.00
O2       0.22650    0.72650    0.83820   1.00
O2       0.33820    0.77350    0.77350   1.00
O2       0.27350    0.83820    0.77350   1.00
O2       0.27350    0.77350    0.83820   1.00
C1       0.25000    0.75000    0.64480   1.00
C1       0.25000    0.64480    0.75000   1.00
C1       0.35520    0.75000    0.75000   1.00
C1       0.14480    0.75000    0.75000   1.00
C1       0.25000    0.85520    0.75000   1.00
C1       0.25000    0.75000    0.85520   1.00
O1       1.00000    1.00000    1.00000   1.00
Zn1      0.96720    1.03280    1.03280   1.00
Zn1      1.03280    0.96720    1.03280   1.00
Zn1      1.03280    1.03280    0.96720   1.00
Zn1      0.96720    0.96720    0.96720   1.00
O2       0.97650    1.02350    1.08820   1.00
O2       0.97650    1.08820    1.02350   1.00
O2       0.91180    1.02350    1.02350   1.00
O2       1.02350    0.97650    1.08820   1.00
O2       1.08820    0.97650    1.02350   1.00
O2       1.02350    0.91180    1.02350   1.00
O2       1.02350    1.08820    0.97650   1.00
O2       1.08820    1.02350    0.97650   1.00
O2       1.02350    1.02350    0.91180   1.00
O2       0.91180    0.97650    0.97650   1.00
O2       0.97650    0.91180    0.97650   1.00
O2       0.97650    0.97650    0.91180   1.00
C1       1.00000    1.00000    1.10520   1.00
C1       1.00000    1.10520    1.00000   1.00
C1       0.89480    1.00000    1.00000   1.00
C1       1.10520    1.00000    1.00000   1.00
C1       1.00000    0.89480    1.00000   1.00
C1       1.00000    1.00000    0.89480   1.00
O1       0.50000    0.50000    1.00000   1.00
Zn1      0.46720    0.53280    1.03280   1.00
Zn1      0.53280    0.46720    1.03280   1.00
Zn1      0.53280    0.53280    0.96720   1.00
Zn1      0.46720    0.46720    0.96720   1.00
O2       0.47650    0.52350    1.08820   1.00
O2       0.47650    0.58820    1.02350   1.00
O2       0.41180    0.52350    1.02350   1.00
O2       0.52350    0.47650    1.08820   1.00
O2       0.58820    0.47650    1.02350   1.00
O2       0.52350    0.41180    1.02350   1.00
O2       0.52350    0.58820    0.97650   1.00
O2       0.58820    0.52350    0.97650   1.00
O2       0.52350    0.52350    0.91180   1.00
O2       0.41180    0.47650    0.97650   1.00
O2       0.47650    0.41180    0.97650   1.00
O2       0.47650    0.47650    0.91180   1.00
C1       0.50000    0.50000    1.10520   1.00
C1       0.50000    0.60520    1.00000   1.00
C1       0.39480    0.50000    1.00000   1.00
C1       0.60520    0.50000    1.00000   1.00
C1       0.50000    0.39480    1.00000   1.00
C1       0.50000    0.50000    0.89480   1.00
O1       0.50000    1.00000    0.50000   1.00
Zn1      0.46720    1.03280    0.53280   1.00
Zn1      0.53280    0.96720    0.53280   1.00
Zn1      0.53280    1.03280    0.46720   1.00
Zn1      0.46720    0.96720    0.46720   1.00
O2       0.47650    1.02350    0.58820   1.00
O2       0.47650    1.08820    0.52350   1.00
O2       0.41180    1.02350    0.52350   1.00
O2       0.52350    0.97650    0.58820   1.00
O2       0.58820    0.97650    0.52350   1.00
O2       0.52350    0.91180    0.52350   1.00
O2       0.52350    1.08820    0.47650   1.00
O2       0.58820    1.02350    0.47650   1.00
O2       0.52350    1.02350    0.41180   1.00
O2       0.41180    0.97650    0.47650   1.00
O2       0.47650    0.91180    0.47650   1.00
O2       0.47650    0.97650    0.41180   1.00
C1       0.50000    1.00000    0.60520   1.00
C1       0.50000    1.10520    0.50000   1.00
C1       0.39480    1.00000    0.50000   1.00
C1       0.60520    1.00000    0.50000   1.00
C1       0.50000    0.89480    0.50000   1.00
C1       0.50000    1.00000    0.39480   1.00
O1       1.00000    0.50000    0.50000   1.00
Zn1      0.96720    0.53280    0.53280   1.00
Zn1      1.03280    0.46720    0.53280   1.00
Zn1      1.03280    0.53280    0.46720   1.00
Zn1      0.96720    0.46720    0.46720   1.00
O2       0.97650    0.52350    0.58820   1.00
O2       0.97650    0.58820    0.52350   1.00
O2       0.91180    0.52350    0.52350   1.00
O2       1.02350    0.47650    0.58820   1.00
O2       1.08820    0.47650    0.52350   1.00
O2       1.02350    0.41180    0.52350   1.00
O2       1.02350    0.58820    0.47650   1.00
O2       1.08820    0.52350    0.47650   1.00
O2       1.02350    0.52350    0.41180   1.00
O2       0.91180    0.47650    0.47650   1.00
O2       0.97650    0.41180    0.47650   1.00
O2       0.97650    0.47650    0.41180   1.00
C1       1.00000    0.50000    0.60520   1.00
C1       1.00000    0.60520    0.50000   1.00
C1       0.89480    0.50000    0.50000   1.00
C1       1.10520    0.50000    0.50000   1.00
C1       1.00000    0.39480    0.50000   1.00
C1       1.00000    0.50000    0.39480   1.00
O1       0.50000    0.50000    0.50000   1.00
Zn1      0.53280    0.46720    0.46720   1.00
Zn1      0.46720    0.53280    0.46720   1.00
Zn1      0.46720    0.46720    0.53280   1.00
Zn1      0.53280    0.53280    0.53280   1.00
O2       0.52350    0.47650    0.41180   1.00
O2       0.52350    0.41180    0.47650   1.00
O2       0.58820    0.47650    0.47650   1.00
O2       0.47650    0.52350    0.41180   1.00
O2       0.41180    0.52350    0.47650   1.00
O2       0.47650    0.58820    0.47650   1.00
O2       0.47650    0.41180    0.52350   1.00
O2       0.41180    0.47650    0.52350   1.00
O2       0.47650    0.47650    0.58820   1.00
O2       0.58820    0.52350    0.52350   1.00
O2       0.52350    0.58820    0.52350   1.00
O2       0.52350    0.52350    0.58820   1.00
C1       0.50000    0.50000    0.39480   1.00
C1       0.50000    0.39480    0.50000   1.00
C1       0.60520    0.50000    0.50000   1.00
C1       0.39480    0.50000    0.50000   1.00
C1       0.50000    0.60520    0.50000   1.00
C1       0.50000    0.50000    0.60520   1.00
O1       1.00000    1.00000    0.50000   1.00
Zn1      1.03280    0.96720    0.46720   1.00
Zn1      0.96720    1.03280    0.46720   1.00
Zn1      0.96720    0.96720    0.53280   1.00
Zn1      1.03280    1.03280    0.53280   1.00
O2       1.02350    0.97650    0.41180   1.00
O2       1.02350    0.91180    0.47650   1.00
O2       1.08820    0.97650    0.47650   1.00
O2       0.97650    1.02350    0.41180   1.00
O2       0.91180    1.02350    0.47650   1.00
O2       0.97650    1.08820    0.47650   1.00
O2       0.97650    0.91180    0.52350   1.00
O2       0.91180    0.97650    0.52350   1.00
O2       0.97650    0.97650    0.58820   1.00
O2       1.08820    1.02350    0.52350   1.00
O2       1.02350    1.08820    0.52350   1.00
O2       1.02350    1.02350    0.58820   1.00
C1       1.00000    1.00000    0.39480   1.00
C1       1.00000    0.89480    0.50000   1.00
C1       1.10520    1.00000    0.50000   1.00
C1       0.89480    1.00000    0.50000   1.00
C1       1.00000    1.10520    0.50000   1.00
C1       1.00000    1.00000    0.60520   1.00
O1       1.00000    0.50000    1.00000   1.00
Zn1      1.03280    0.46720    0.96720   1.00
Zn1      0.96720    0.53280    0.96720   1.00
Zn1      0.96720    0.46720    1.03280   1.00
Zn1      1.03280    0.53280    1.03280   1.00
O2       1.02350    0.47650    0.91180   1.00
O2       1.02350    0.41180    0.97650   1.00
O2       1.08820    0.47650    0.97650   1.00
O2       0.97650    0.52350    0.91180   1.00
O2       0.91180    0.52350    0.97650   1.00
O2       0.97650    0.58820    0.97650   1.00
O2       0.97650    0.41180    1.02350   1.00
O2       0.91180    0.47650    1.02350   1.00
O2       0.97650    0.47650    1.08820   1.00
O2       1.08820    0.52350    1.02350   1.00
O2       1.02350    0.58820    1.02350   1.00
O2       1.02350    0.52350    1.08820   1.00
C1       1.00000    0.50000    0.89480   1.00
C1       1.00000    0.39480    1.00000   1.00
C1       1.10520    0.50000    1.00000   1.00
C1       0.89480    0.50000    1.00000   1.00
C1       1.00000    0.60520    1.00000   1.00
C1       1.00000    0.50000    1.10520   1.00
O1       0.50000    1.00000    1.00000   1.00
Zn1      0.53280    0.96720    0.96720   1.00
Zn1      0.46720    1.03280    0.96720   1.00
Zn1      0.46720    0.96720    1.03280   1.00
Zn1      0.53280    1.03280    1.03280   1.00
O2       0.52350    0.97650    0.91180   1.00
O2       0.52350    0.91180    0.97650   1.00
O2       0.58820    0.97650    0.97650   1.00
O2       0.47650    1.02350    0.91180   1.00
O2       0.41180    1.02350    0.97650   1.00
O2       0.47650    1.08820    0.97650   1.00
O2       0.47650    0.91180    1.02350   1.00
O2       0.41180    0.97650    1.02350   1.00
O2       0.47650    0.97650    1.08820   1.00
O2       0.58820    1.02350    1.02350   1.00
O2       0.52350    1.08820    1.02350   1.00
O2       0.52350    1.02350    1.08820   1.00
C1       0.50000    1.00000    0.89480   1.00
C1       0.50000    0.89480    1.00000   1.00
C1       0.60520    1.00000    1.00000   1.00
C1       0.39480    1.00000    1.00000   1.00
C1       0.50000    1.10520    1.00000   1.00
C1       0.50000    1.00000    1.10520   1.00
C2       0.75083    0.75287    0.89757   1.00
C3a      0.77600    0.77707    0.91884   1.00
H1       0.79570    0.79665    0.90369   1.00
C3a      0.72533    0.72753    0.91704   1.00
H1       0.70588    0.70884    0.90051   1.00
C3b      0.77595    0.77621    0.95938   1.00
C5       0.80339    0.80261    0.98144   1.00
H2       0.82334    0.78498    0.99984   1.00
H2       0.82150    0.82073    0.96161   1.00
H2       0.78658    0.82256    1.00060   1.00
C3b      0.72472    0.72612    0.95756   1.00
C5       0.69694    0.69853    0.97767   1.00
H2       0.67669    0.71511    0.99670   1.00
H2       0.67916    0.68157    0.95655   1.00
H2       0.71345    0.67754    0.99594   1.00
C4       0.75017    0.75060    0.97873   1.00
C4       0.74983    0.74940    1.02127   1.00
C3b      0.77472    0.72322    1.04101   1.00
C5       0.80191    0.69621    1.01937   1.00
H2       0.82253    0.71338    1.00129   1.00
H2       0.81929    0.67770    1.03949   1.00
H2       0.78495    0.67664    0.99995   1.00
C3b      0.72461    0.77445    1.04204   1.00
C5       0.69776    0.80265    1.02152   1.00
H2       0.67744    0.78652    1.00217   1.00
H2       0.68005    0.82001    1.04235   1.00
H2       0.71502    0.82326    1.00350   1.00
C3a      0.77412    0.72237    1.08155   1.00
H1       0.79314    0.70235    1.09700   1.00
C3a      0.72455    0.77303    1.08257   1.00
H1       0.70528    0.79215    1.09881   1.00
C2       0.74917    0.74713    1.10243   1.00
C2       0.75287    0.89757    0.75083   1.00
C3a      0.77707    0.91884    0.77600   1.00
H1       0.79665    0.90369    0.79570   1.00
C3a      0.72753    0.91704    0.72533   1.00
H1       0.70884    0.90051    0.70588   1.00
C3b      0.77621    0.95938    0.77595   1.00
C5       0.80261    0.98144    0.80339   1.00
H2       0.78498    0.99984    0.82334   1.00
H2       0.82073    0.96161    0.82150   1.00
H2       0.82256    1.00060    0.78658   1.00
C3b      0.72612    0.95756    0.72472   1.00
C5       0.69853    0.97767    0.69694   1.00
H2       0.71511    0.99670    0.67669   1.00
H2       0.68157    0.95655    0.67916   1.00
H2       0.67754    0.99594    0.71345   1.00
C4       0.75060    0.97873    0.75017   1.00
C4       0.74940    1.02127    0.74983   1.00
C3b      0.72322    1.04101    0.77472   1.00
C5       0.69621    1.01937    0.80191   1.00
H2       0.71338    1.00129    0.82253   1.00
H2       0.67770    1.03949    0.81929   1.00
H2       0.67664    0.99995    0.78495   1.00
C3b      0.77445    1.04204    0.72461   1.00
C5       0.80265    1.02152    0.69776   1.00
H2       0.78652    1.00217    0.67744   1.00
H2       0.82001    1.04235    0.68005   1.00
H2       0.82326    1.00350    0.71502   1.00
C3a      0.72237    1.08155    0.77412   1.00
H1       0.70235    1.09700    0.79314   1.00
C3a      0.77303    1.08257    0.72455   1.00
H1       0.79215    1.09881    0.70528   1.00
C2       0.74713    1.10243    0.74917   1.00
C2       0.60243    0.75083    0.74713   1.00
C3a      0.58116    0.77600    0.72293   1.00
H1       0.59631    0.79570    0.70335   1.00
C3a      0.58296    0.72533    0.77247   1.00
H1       0.59949    0.70588    0.79116   1.00
C3b      0.54062    0.77595    0.72379   1.00
C5       0.51856    0.80339    0.69739   1.00
H2       0.50016    0.82334    0.71502   1.00
H2       0.53839    0.82150    0.67927   1.00
H2       0.49940    0.78658    0.67744   1.00
C3b      0.54244    0.72472    0.77388   1.00
C5       0.52233    0.69694    0.80147   1.00
H2       0.50330    0.67669    0.78489   1.00
H2       0.54345    0.67916    0.81843   1.00
H2       0.50406    0.71345    0.82246   1.00
C4       0.52127    0.75017    0.74940   1.00
C4       0.47873    0.74983    0.75060   1.00
C3b      0.45899    0.77472    0.77678   1.00
C5       0.48063    0.80191    0.80379   1.00
H2       0.49871    0.82253    0.78662   1.00
H2       0.46051    0.81929    0.82230   1.00
H2       0.50005    0.78495    0.82336   1.00
C3b      0.45796    0.72461    0.72555   1.00
C5       0.47848    0.69776    0.69735   1.00
H2       0.49783    0.67744    0.71348   1.00
H2       0.45765    0.68005    0.67999   1.00
H2       0.49650    0.71502    0.67674   1.00
C3a      0.41845    0.77412    0.77763   1.00
H1       0.40300    0.79314    0.79765   1.00
C3a      0.41743    0.72455    0.72697   1.00
H1       0.40119    0.70528    0.70785   1.00
C2       0.39757    0.74917    0.75287   1.00
C2       0.89757    0.75083    0.75287   1.00
C3a      0.91884    0.77600    0.77707   1.00
H1       0.90369    0.79570    0.79665   1.00
C3a      0.91704    0.72533    0.72753   1.00
H1       0.90051    0.70588    0.70884   1.00
C3b      0.95938    0.77595    0.77621   1.00
C5       0.98144    0.80339    0.80261   1.00
H2       0.99984    0.82334    0.78498   1.00
H2       0.96161    0.82150    0.82073   1.00
H2       1.00060    0.78658    0.82256   1.00
C3b      0.95756    0.72472    0.72612   1.00
C5       0.97767    0.69694    0.69853   1.00
H2       0.99670    0.67669    0.71511   1.00
H2       0.95655    0.67916    0.68157   1.00
H2       0.99594    0.71345    0.67754   1.00
C4       0.97873    0.75017    0.75060   1.00
C4       1.02127    0.74983    0.74940   1.00
C3b      1.04101    0.77472    0.72322   1.00
C5       1.01937    0.80191    0.69621   1.00
H2       1.00129    0.82253    0.71338   1.00
H2       1.03949    0.81929    0.67770   1.00
H2       0.99995    0.78495    0.67664   1.00
C3b      1.04204    0.72461    0.77445   1.00
C5       1.02152    0.69776    0.80265   1.00
H2       1.00217    0.67744    0.78652   1.00
H2       1.04235    0.68005    0.82001   1.00
H2       1.00350    0.71502    0.82326   1.00
C3a      1.08155    0.77412    0.72237   1.00
H1       1.09700    0.79314    0.70235   1.00
C3a      1.08257    0.72455    0.77303   1.00
H1       1.09881    0.70528    0.79215   1.00
C2       1.10243    0.74917    0.74713   1.00
C2       0.74713    0.60243    0.75083   1.00
C3a      0.72293    0.58116    0.77600   1.00
H1       0.70335    0.59631    0.79570   1.00
C3a      0.77247    0.58296    0.72533   1.00
H1       0.79116    0.59949    0.70588   1.00
C3b      0.72379    0.54062    0.77595   1.00
C5       0.69739    0.51856    0.80339   1.00
H2       0.71502    0.50016    0.82334   1.00
H2       0.67927    0.53839    0.82150   1.00
H2       0.67744    0.49940    0.78658   1.00
C3b      0.77388    0.54244    0.72472   1.00
C5       0.80147    0.52233    0.69694   1.00
H2       0.78489    0.50330    0.67669   1.00
H2       0.81843    0.54345    0.67916   1.00
H2       0.82246    0.50406    0.71345   1.00
C4       0.74940    0.52127    0.75017   1.00
C4       0.75060    0.47873    0.74983   1.00
C3b      0.77678    0.45899    0.77472   1.00
C5       0.80379    0.48063    0.80191   1.00
H2       0.78662    0.49871    0.82253   1.00
H2       0.82230    0.46051    0.81929   1.00
H2       0.82336    0.50005    0.78495   1.00
C3b      0.72555    0.45796    0.72461   1.00
C5       0.69735    0.47848    0.69776   1.00
H2       0.71348    0.49783    0.67744   1.00
H2       0.67999    0.45765    0.68005   1.00
H2       0.67674    0.49650    0.71502   1.00
C3a      0.77763    0.41845    0.77412   1.00
H1       0.79765    0.40300    0.79314   1.00
C3a      0.72697    0.41743    0.72455   1.00
H1       0.70785    0.40119    0.70528   1.00
C2       0.75287    0.39757    0.74917   1.00
C2       0.75083    0.74713    0.60243   1.00
C3a      0.77600    0.72293    0.58116   1.00
H1       0.79570    0.70335    0.59631   1.00
C3a      0.72533    0.77247    0.58296   1.00
H1       0.70588    0.79116    0.59949   1.00
C3b      0.77595    0.72379    0.54062   1.00
C5       0.80339    0.69739    0.51856   1.00
H2       0.82334    0.71502    0.50016   1.00
H2       0.82150    0.67927    0.53839   1.00
H2       0.78658    0.67744    0.49940   1.00
C3b      0.72472    0.77388    0.54244   1.00
C5       0.69694    0.80147    0.52233   1.00
H2       0.67669    0.78489    0.50330   1.00
H2       0.67916    0.81843    0.54345   1.00
H2       0.71345    0.82246    0.50406   1.00
C4       0.75017    0.74940    0.52127   1.00
C4       0.74983    0.75060    0.47873   1.00
C3b      0.77472    0.77678    0.45899   1.00
C5       0.80191    0.80379    0.48063   1.00
H2       0.82253    0.78662    0.49871   1.00
H2       0.81929    0.82230    0.46051   1.00
H2       0.78495    0.82336    0.50005   1.00
C3b      0.72461    0.72555    0.45796   1.00
C5       0.69776    0.69735    0.47848   1.00
H2       0.67744    0.71348    0.49783   1.00
H2       0.68005    0.67999    0.45765   1.00
H2       0.71502    0.67674    0.49650   1.00
C3a      0.77412    0.77763    0.41845   1.00
H1       0.79314    0.79765    0.40300   1.00
C3a      0.72455    0.72697    0.41743   1.00
H1       0.70528    0.70785    0.40119   1.00
C2       0.74917    0.75287    0.39757   1.00
C2       0.25083    0.25287    0.89757   1.00
C3a      0.27600    0.27707    0.91884   1.00
H1       0.29570    0.29665    0.90369   1.00
C3a      0.22533    0.22753    0.91704   1.00
H1       0.20588    0.20884    0.90051   1.00
C3b      0.27595    0.27621    0.95938   1.00
C5       0.30339    0.30261    0.98144   1.00
H2       0.32334    0.28498    0.99984   1.00
H2       0.32150    0.32073    0.96161   1.00
H2       0.28658    0.32256    1.00060   1.00
C3b      0.22472    0.22612    0.95756   1.00
C5       0.19694    0.19853    0.97767   1.00
H2       0.17669    0.21511    0.99670   1.00
H2       0.17916    0.18157    0.95655   1.00
H2       0.21345    0.17754    0.99594   1.00
C4       0.25017    0.25060    0.97873   1.00
C4       0.24983    0.24940    1.02127   1.00
C3b      0.27472    0.22322    1.04101   1.00
C5       0.30191    0.19621    1.01937   1.00
H2       0.32253    0.21338    1.00129   1.00
H2       0.31929    0.17770    1.03949   1.00
H2       0.28495    0.17664    0.99995   1.00
C3b      0.22461    0.27445    1.04204   1.00
C5       0.19776    0.30265    1.02152   1.00
H2       0.17744    0.28652    1.00217   1.00
H2       0.18005    0.32001    1.04235   1.00
H2       0.21502    0.32326    1.00350   1.00
C3a      0.27412    0.22237    1.08155   1.00
H1       0.29314    0.20235    1.09700   1.00
C3a      0.22455    0.27303    1.08257   1.00
H1       0.20528    0.29215    1.09881   1.00
C2       0.24917    0.24713    1.10243   1.00
C2       0.25287    0.39757    0.75083   1.00
C3a      0.27707    0.41884    0.77600   1.00
H1       0.29665    0.40369    0.79570   1.00
C3a      0.22753    0.41704    0.72533   1.00
H1       0.20884    0.40051    0.70588   1.00
C3b      0.27621    0.45938    0.77595   1.00
C5       0.30261    0.48144    0.80339   1.00
H2       0.28498    0.49984    0.82334   1.00
H2       0.32073    0.46161    0.82150   1.00
H2       0.32256    0.50060    0.78658   1.00
C3b      0.22612    0.45756    0.72472   1.00
C5       0.19853    0.47767    0.69694   1.00
H2       0.21511    0.49670    0.67669   1.00
H2       0.18157    0.45655    0.67916   1.00
H2       0.17754    0.49594    0.71345   1.00
C4       0.25060    0.47873    0.75017   1.00
C4       0.24940    0.52127    0.74983   1.00
C3b      0.22322    0.54101    0.77472   1.00
C5       0.19621    0.51937    0.80191   1.00
H2       0.21338    0.50129    0.82253   1.00
H2       0.17770    0.53949    0.81929   1.00
H2       0.17664    0.49995    0.78495   1.00
C3b      0.27445    0.54204    0.72461   1.00
C5       0.30265    0.52152    0.69776   1.00
H2       0.28652    0.50217    0.67744   1.00
H2       0.32001    0.54235    0.68005   1.00
H2       0.32326    0.50350    0.71502   1.00
C3a      0.22237    0.58155    0.77412   1.00
H1       0.20235    0.59700    0.79314   1.00
C3a      0.27303    0.58257    0.72455   1.00
H1       0.29215    0.59881    0.70528   1.00
C2       0.24713    0.60243    0.74917   1.00
C2       0.10243    0.25083    0.74713   1.00
C3a      0.08116    0.27600    0.72293   1.00
H1       0.09631    0.29570    0.70335   1.00
C3a      0.08296    0.22533    0.77247   1.00
H1       0.09949    0.20588    0.79116   1.00
C3b      0.04062    0.27595    0.72379   1.00
C5       0.01856    0.30339    0.69739   1.00
H2       0.00016    0.32334    0.71502   1.00
H2       0.03839    0.32150    0.67927   1.00
H2       -0.00060   0.28658    0.67744   1.00
C3b      0.04244    0.22472    0.77388   1.00
C5       0.02233    0.19694    0.80147   1.00
H2       0.00330    0.17669    0.78489   1.00
H2       0.04345    0.17916    0.81843   1.00
H2       0.00406    0.21345    0.82246   1.00
C4       0.02127    0.25017    0.74940   1.00
C4       -0.02127   0.24983    0.75060   1.00
C3b      -0.04101   0.27472    0.77678   1.00
C5       -0.01937   0.30191    0.80379   1.00
H2       -0.00129   0.32253    0.78662   1.00
H2       -0.03949   0.31929    0.82230   1.00
H2       0.00005    0.28495    0.82336   1.00
C3b      -0.04204   0.22461    0.72555   1.00
C5       -0.02152   0.19776    0.69735   1.00
H2       -0.00217   0.17744    0.71348   1.00
H2       -0.04235   0.18005    0.67999   1.00
H2       -0.00350   0.21502    0.67674   1.00
C3a      -0.08155   0.27412    0.77763   1.00
H1       -0.09700   0.29314    0.79765   1.00
C3a      -0.08257   0.22455    0.72697   1.00
H1       -0.09881   0.20528    0.70785   1.00
C2       -0.10243   0.24917    0.75287   1.00
C2       0.39757    0.25083    0.75287   1.00
C3a      0.41884    0.27600    0.77707   1.00
H1       0.40369    0.29570    0.79665   1.00
C3a      0.41704    0.22533    0.72753   1.00
H1       0.40051    0.20588    0.70884   1.00
C3b      0.45938    0.27595    0.77621   1.00
C5       0.48144    0.30339    0.80261   1.00
H2       0.49984    0.32334    0.78498   1.00
H2       0.46161    0.32150    0.82073   1.00
H2       0.50060    0.28658    0.82256   1.00
C3b      0.45756    0.22472    0.72612   1.00
C5       0.47767    0.19694    0.69853   1.00
H2       0.49670    0.17669    0.71511   1.00
H2       0.45655    0.17916    0.68157   1.00
H2       0.49594    0.21345    0.67754   1.00
C4       0.47873    0.25017    0.75060   1.00
C4       0.52127    0.24983    0.74940   1.00
C3b      0.54101    0.27472    0.72322   1.00
C5       0.51937    0.30191    0.69621   1.00
H2       0.50129    0.32253    0.71338   1.00
H2       0.53949    0.31929    0.67770   1.00
H2       0.49995    0.28495    0.67664   1.00
C3b      0.54204    0.22461    0.77445   1.00
C5       0.52152    0.19776    0.80265   1.00
H2       0.50217    0.17744    0.78652   1.00
H2       0.54235    0.18005    0.82001   1.00
H2       0.50350    0.21502    0.82326   1.00
C3a      0.58155    0.27412    0.72237   1.00
H1       0.59700    0.29314    0.70235   1.00
C3a      0.58257    0.22455    0.77303   1.00
H1       0.59881    0.20528    0.79215   1.00
C2       0.60243    0.24917    0.74713   1.00
C2       0.24713    0.10243    0.75083   1.00
C3a      0.22293    0.08116    0.77600   1.00
H1       0.20335    0.09631    0.79570   1.00
C3a      0.27247    0.08296    0.72533   1.00
H1       0.29116    0.09949    0.70588   1.00
C3b      0.22379    0.04062    0.77595   1.00
C5       0.19739    0.01856    0.80339   1.00
H2       0.21502    0.00016    0.82334   1.00
H2       0.17927    0.03839    0.82150   1.00
H2       0.17744    -0.00060   0.78658   1.00
C3b      0.27388    0.04244    0.72472   1.00
C5       0.30147    0.02233    0.69694   1.00
H2       0.28489    0.00330    0.67669   1.00
H2       0.31843    0.04345    0.67916   1.00
H2       0.32246    0.00406    0.71345   1.00
C4       0.24940    0.02127    0.75017   1.00
C4       0.25060    -0.02127   0.74983   1.00
C3b      0.27678    -0.04101   0.77472   1.00
C5       0.30379    -0.01937   0.80191   1.00
H2       0.28662    -0.00129   0.82253   1.00
H2       0.32230    -0.03949   0.81929   1.00
H2       0.32336    0.00005    0.78495   1.00
C3b      0.22555    -0.04204   0.72461   1.00
C5       0.19735    -0.02152   0.69776   1.00
H2       0.21348    -0.00217   0.67744   1.00
H2       0.17999    -0.04235   0.68005   1.00
H2       0.17674    -0.00350   0.71502   1.00
C3a      0.27763    -0.08155   0.77412   1.00
H1       0.29765    -0.09700   0.79314   1.00
C3a      0.22697    -0.08257   0.72455   1.00
H1       0.20785    -0.09881   0.70528   1.00
C2       0.25287    -0.10243   0.74917   1.00
C2       0.25083    0.24713    0.60243   1.00
C3a      0.27600    0.22293    0.58116   1.00
H1       0.29570    0.20335    0.59631   1.00
C3a      0.22533    0.27247    0.58296   1.00
H1       0.20588    0.29116    0.59949   1.00
C3b      0.27595    0.22379    0.54062   1.00
C5       0.30339    0.19739    0.51856   1.00
H2       0.32334    0.21502    0.50016   1.00
H2       0.32150    0.17927    0.53839   1.00
H2       0.28658    0.17744    0.49940   1.00
C3b      0.22472    0.27388    0.54244   1.00
C5       0.19694    0.30147    0.52233   1.00
H2       0.17669    0.28489    0.50330   1.00
H2       0.17916    0.31843    0.54345   1.00
H2       0.21345    0.32246    0.50406   1.00
C4       0.25017    0.24940    0.52127   1.00
C4       0.24983    0.25060    0.47873   1.00
C3b      0.27472    0.27678    0.45899   1.00
C5       0.30191    0.30379    0.48063   1.00
H2       0.32253    0.28662    0.49871   1.00
H2       0.31929    0.32230    0.46051   1.00
H2       0.28495    0.32336    0.50005   1.00
C3b      0.22461    0.22555    0.45796   1.00
C5       0.19776    0.19735    0.47848   1.00
H2       0.17744    0.21348    0.49783   1.00
H2       0.18005    0.17999    0.45765   1.00
H2       0.21502    0.17674    0.49650   1.00
C3a      0.27412    0.27763    0.41845   1.00
H1       0.29314    0.29765    0.40300   1.00
C3a      0.22455    0.22697    0.41743   1.00
H1       0.20528    0.20785    0.40119   1.00
C2       0.24917    0.25287    0.39757   1.00
C2       0.25083    0.75287    0.39757   1.00
C3a      0.27600    0.77707    0.41884   1.00
H1       0.29570    0.79665    0.40369   1.00
C3a      0.22533    0.72753    0.41704   1.00
H1       0.20588    0.70884    0.40051   1.00
C3b      0.27595    0.77621    0.45938   1.00
C5       0.30339    0.80261    0.48144   1.00
H2       0.32334    0.78498    0.49984   1.00
H2       0.32150    0.82073    0.46161   1.00
H2       0.28658    0.82256    0.50060   1.00
C3b      0.22472    0.72612    0.45756   1.00
C5       0.19694    0.69853    0.47767   1.00
H2       0.17669    0.71511    0.49670   1.00
H2       0.17916    0.68157    0.45655   1.00
H2       0.21345    0.67754    0.49594   1.00
C4       0.25017    0.75060    0.47873   1.00
C4       0.24983    0.74940    0.52127   1.00
C3b      0.27472    0.72322    0.54101   1.00
C5       0.30191    0.69621    0.51937   1.00
H2       0.32253    0.71338    0.50129   1.00
H2       0.31929    0.67770    0.53949   1.00
H2       0.28495    0.67664    0.49995   1.00
C3b      0.22461    0.77445    0.54204   1.00
C5       0.19776    0.80265    0.52152   1.00
H2       0.17744    0.78652    0.50217   1.00
H2       0.18005    0.82001    0.54235   1.00
H2       0.21502    0.82326    0.50350   1.00
C3a      0.27412    0.72237    0.58155   1.00
H1       0.29314    0.70235    0.59700   1.00
C3a      0.22455    0.77303    0.58257   1.00
H1       0.20528    0.79215    0.59881   1.00
C2       0.24917    0.74713    0.60243   1.00
C2       0.25287    0.89757    0.25083   1.00
C3a      0.27707    0.91884    0.27600   1.00
H1       0.29665    0.90369    0.29570   1.00
C3a      0.22753    0.91704    0.22533   1.00
H1       0.20884    0.90051    0.20588   1.00
C3b      0.27621    0.95938    0.27595   1.00
C5       0.30261    0.98144    0.30339   1.00
H2       0.28498    0.99984    0.32334   1.00
H2       0.32073    0.96161    0.32150   1.00
H2       0.32256    1.00060    0.28658   1.00
C3b      0.22612    0.95756    0.22472   1.00
C5       0.19853    0.97767    0.19694   1.00
H2       0.21511    0.99670    0.17669   1.00
H2       0.18157    0.95655    0.17916   1.00
H2       0.17754    0.99594    0.21345   1.00
C4       0.25060    0.97873    0.25017   1.00
C4       0.24940    1.02127    0.24983   1.00
C3b      0.22322    1.04101    0.27472   1.00
C5       0.19621    1.01937    0.30191   1.00
H2       0.21338    1.00129    0.32253   1.00
H2       0.17770    1.03949    0.31929   1.00
H2       0.17664    0.99995    0.28495   1.00
C3b      0.27445    1.04204    0.22461   1.00
C5       0.30265    1.02152    0.19776   1.00
H2       0.28652    1.00217    0.17744   1.00
H2       0.32001    1.04235    0.18005   1.00
H2       0.32326    1.00350    0.21502   1.00
C3a      0.22237    1.08155    0.27412   1.00
H1       0.20235    1.09700    0.29314   1.00
C3a      0.27303    1.08257    0.22455   1.00
H1       0.29215    1.09881    0.20528   1.00
C2       0.24713    1.10243    0.24917   1.00
C2       0.10243    0.75083    0.24713   1.00
C3a      0.08116    0.77600    0.22293   1.00
H1       0.09631    0.79570    0.20335   1.00
C3a      0.08296    0.72533    0.27247   1.00
H1       0.09949    0.70588    0.29116   1.00
C3b      0.04062    0.77595    0.22379   1.00
C5       0.01856    0.80339    0.19739   1.00
H2       0.00016    0.82334    0.21502   1.00
H2       0.03839    0.82150    0.17927   1.00
H2       -0.00060   0.78658    0.17744   1.00
C3b      0.04244    0.72472    0.27388   1.00
C5       0.02233    0.69694    0.30147   1.00
H2       0.00330    0.67669    0.28489   1.00
H2       0.04345    0.67916    0.31843   1.00
H2       0.00406    0.71345    0.32246   1.00
C4       0.02127    0.75017    0.24940   1.00
C4       -0.02127   0.74983    0.25060   1.00
C3b      -0.04101   0.77472    0.27678   1.00
C5       -0.01937   0.80191    0.30379   1.00
H2       -0.00129   0.82253    0.28662   1.00
H2       -0.03949   0.81929    0.32230   1.00
H2       0.00005    0.78495    0.32336   1.00
C3b      -0.04204   0.72461    0.22555   1.00
C5       -0.02152   0.69776    0.19735   1.00
H2       -0.00217   0.67744    0.21348   1.00
H2       -0.04235   0.68005    0.17999   1.00
H2       -0.00350   0.71502    0.17674   1.00
C3a      -0.08155   0.77412    0.27763   1.00
H1       -0.09700   0.79314    0.29765   1.00
C3a      -0.08257   0.72455    0.22697   1.00
H1       -0.09881   0.70528    0.20785   1.00
C2       -0.10243   0.74917    0.25287   1.00
C2       0.39757    0.75083    0.25287   1.00
C3a      0.41884    0.77600    0.27707   1.00
H1       0.40369    0.79570    0.29665   1.00
C3a      0.41704    0.72533    0.22753   1.00
H1       0.40051    0.70588    0.20884   1.00
C3b      0.45938    0.77595    0.27621   1.00
C5       0.48144    0.80339    0.30261   1.00
H2       0.49984    0.82334    0.28498   1.00
H2       0.46161    0.82150    0.32073   1.00
H2       0.50060    0.78658    0.32256   1.00
C3b      0.45756    0.72472    0.22612   1.00
C5       0.47767    0.69694    0.19853   1.00
H2       0.49670    0.67669    0.21511   1.00
H2       0.45655    0.67916    0.18157   1.00
H2       0.49594    0.71345    0.17754   1.00
C4       0.47873    0.75017    0.25060   1.00
C4       0.52127    0.74983    0.24940   1.00
C3b      0.54101    0.77472    0.22322   1.00
C5       0.51937    0.80191    0.19621   1.00
H2       0.50129    0.82253    0.21338   1.00
H2       0.53949    0.81929    0.17770   1.00
H2       0.49995    0.78495    0.17664   1.00
C3b      0.54204    0.72461    0.27445   1.00
C5       0.52152    0.69776    0.30265   1.00
H2       0.50217    0.67744    0.28652   1.00
H2       0.54235    0.68005    0.32001   1.00
H2       0.50350    0.71502    0.32326   1.00
C3a      0.58155    0.77412    0.22237   1.00
H1       0.59700    0.79314    0.20235   1.00
C3a      0.58257    0.72455    0.27303   1.00
H1       0.59881    0.70528    0.29215   1.00
C2       0.60243    0.74917    0.24713   1.00
C2       0.24713    0.60243    0.25083   1.00
C3a      0.22293    0.58116    0.27600   1.00
H1       0.20335    0.59631    0.29570   1.00
C3a      0.27247    0.58296    0.22533   1.00
H1       0.29116    0.59949    0.20588   1.00
C3b      0.22379    0.54062    0.27595   1.00
C5       0.19739    0.51856    0.30339   1.00
H2       0.21502    0.50016    0.32334   1.00
H2       0.17927    0.53839    0.32150   1.00
H2       0.17744    0.49940    0.28658   1.00
C3b      0.27388    0.54244    0.22472   1.00
C5       0.30147    0.52233    0.19694   1.00
H2       0.28489    0.50330    0.17669   1.00
H2       0.31843    0.54345    0.17916   1.00
H2       0.32246    0.50406    0.21345   1.00
C4       0.24940    0.52127    0.25017   1.00
C4       0.25060    0.47873    0.24983   1.00
C3b      0.27678    0.45899    0.27472   1.00
C5       0.30379    0.48063    0.30191   1.00
H2       0.28662    0.49871    0.32253   1.00
H2       0.32230    0.46051    0.31929   1.00
H2       0.32336    0.50005    0.28495   1.00
C3b      0.22555    0.45796    0.22461   1.00
C5       0.19735    0.47848    0.19776   1.00
H2       0.21348    0.49783    0.17744   1.00
H2       0.17999    0.45765    0.18005   1.00
H2       0.17674    0.49650    0.21502   1.00
C3a      0.27763    0.41845    0.27412   1.00
H1       0.29765    0.40300    0.29314   1.00
C3a      0.22697    0.41743    0.22455   1.00
H1       0.20785    0.40119    0.20528   1.00
C2       0.25287    0.39757    0.24917   1.00
C2       0.25083    0.74713    0.10243   1.00
C3a      0.27600    0.72293    0.08116   1.00
H1       0.29570    0.70335    0.09631   1.00
C3a      0.22533    0.77247    0.08296   1.00
H1       0.20588    0.79116    0.09949   1.00
C3b      0.27595    0.72379    0.04062   1.00
C5       0.30339    0.69739    0.01856   1.00
H2       0.32334    0.71502    0.00016   1.00
H2       0.32150    0.67927    0.03839   1.00
H2       0.28658    0.67744    -0.00060   1.00
C3b      0.22472    0.77388    0.04244   1.00
C5       0.19694    0.80147    0.02233   1.00
H2       0.17669    0.78489    0.00330   1.00
H2       0.17916    0.81843    0.04345   1.00
H2       0.21345    0.82246    0.00406   1.00
C4       0.25017    0.74940    0.02127   1.00
C4       0.24983    0.75060    -0.02127   1.00
C3b      0.27472    0.77678    -0.04101   1.00
C5       0.30191    0.80379    -0.01937   1.00
H2       0.32253    0.78662    -0.00129   1.00
H2       0.31929    0.82230    -0.03949   1.00
H2       0.28495    0.82336    0.00005   1.00
C3b      0.22461    0.72555    -0.04204   1.00
C5       0.19776    0.69735    -0.02152   1.00
H2       0.17744    0.71348    -0.00217   1.00
H2       0.18005    0.67999    -0.04235   1.00
H2       0.21502    0.67674    -0.00350   1.00
C3a      0.27412    0.77763    -0.08155   1.00
H1       0.29314    0.79765    -0.09700   1.00
C3a      0.22455    0.72697    -0.08257   1.00
H1       0.20528    0.70785    -0.09881   1.00
C2       0.24917    0.75287    -0.10243   1.00
C2       0.75083    0.25287    0.39757   1.00
C3a      0.77600    0.27707    0.41884   1.00
H1       0.79570    0.29665    0.40369   1.00
C3a      0.72533    0.22753    0.41704   1.00
H1       0.70588    0.20884    0.40051   1.00
C3b      0.77595    0.27621    0.45938   1.00
C5       0.80339    0.30261    0.48144   1.00
H2       0.82334    0.28498    0.49984   1.00
H2       0.82150    0.32073    0.46161   1.00
H2       0.78658    0.32256    0.50060   1.00
C3b      0.72472    0.22612    0.45756   1.00
C5       0.69694    0.19853    0.47767   1.00
H2       0.67669    0.21511    0.49670   1.00
H2       0.67916    0.18157    0.45655   1.00
H2       0.71345    0.17754    0.49594   1.00
C4       0.75017    0.25060    0.47873   1.00
C4       0.74983    0.24940    0.52127   1.00
C3b      0.77472    0.22322    0.54101   1.00
C5       0.80191    0.19621    0.51937   1.00
H2       0.82253    0.21338    0.50129   1.00
H2       0.81929    0.17770    0.53949   1.00
H2       0.78495    0.17664    0.49995   1.00
C3b      0.72461    0.27445    0.54204   1.00
C5       0.69776    0.30265    0.52152   1.00
H2       0.67744    0.28652    0.50217   1.00
H2       0.68005    0.32001    0.54235   1.00
H2       0.71502    0.32326    0.50350   1.00
C3a      0.77412    0.22237    0.58155   1.00
H1       0.79314    0.20235    0.59700   1.00
C3a      0.72455    0.27303    0.58257   1.00
H1       0.70528    0.29215    0.59881   1.00
C2       0.74917    0.24713    0.60243   1.00
C2       0.75287    0.39757    0.25083   1.00
C3a      0.77707    0.41884    0.27600   1.00
H1       0.79665    0.40369    0.29570   1.00
C3a      0.72753    0.41704    0.22533   1.00
H1       0.70884    0.40051    0.20588   1.00
C3b      0.77621    0.45938    0.27595   1.00
C5       0.80261    0.48144    0.30339   1.00
H2       0.78498    0.49984    0.32334   1.00
H2       0.82073    0.46161    0.32150   1.00
H2       0.82256    0.50060    0.28658   1.00
C3b      0.72612    0.45756    0.22472   1.00
C5       0.69853    0.47767    0.19694   1.00
H2       0.71511    0.49670    0.17669   1.00
H2       0.68157    0.45655    0.17916   1.00
H2       0.67754    0.49594    0.21345   1.00
C4       0.75060    0.47873    0.25017   1.00
C4       0.74940    0.52127    0.24983   1.00
C3b      0.72322    0.54101    0.27472   1.00
C5       0.69621    0.51937    0.30191   1.00
H2       0.71338    0.50129    0.32253   1.00
H2       0.67770    0.53949    0.31929   1.00
H2       0.67664    0.49995    0.28495   1.00
C3b      0.77445    0.54204    0.22461   1.00
C5       0.80265    0.52152    0.19776   1.00
H2       0.78652    0.50217    0.17744   1.00
H2       0.82001    0.54235    0.18005   1.00
H2       0.82326    0.50350    0.21502   1.00
C3a      0.72237    0.58155    0.27412   1.00
H1       0.70235    0.59700    0.29314   1.00
C3a      0.77303    0.58257    0.22455   1.00
H1       0.79215    0.59881    0.20528   1.00
C2       0.74713    0.60243    0.24917   1.00
C2       0.60243    0.25083    0.24713   1.00
C3a      0.58116    0.27600    0.22293   1.00
H1       0.59631    0.29570    0.20335   1.00
C3a      0.58296    0.22533    0.27247   1.00
H1       0.59949    0.20588    0.29116   1.00
C3b      0.54062    0.27595    0.22379   1.00
C5       0.51856    0.30339    0.19739   1.00
H2       0.50016    0.32334    0.21502   1.00
H2       0.53839    0.32150    0.17927   1.00
H2       0.49940    0.28658    0.17744   1.00
C3b      0.54244    0.22472    0.27388   1.00
C5       0.52233    0.19694    0.30147   1.00
H2       0.50330    0.17669    0.28489   1.00
H2       0.54345    0.17916    0.31843   1.00
H2       0.50406    0.21345    0.32246   1.00
C4       0.52127    0.25017    0.24940   1.00
C4       0.47873    0.24983    0.25060   1.00
C3b      0.45899    0.27472    0.27678   1.00
C5       0.48063    0.30191    0.30379   1.00
H2       0.49871    0.32253    0.28662   1.00
H2       0.46051    0.31929    0.32230   1.00
H2       0.50005    0.28495    0.32336   1.00
C3b      0.45796    0.22461    0.22555   1.00
C5       0.47848    0.19776    0.19735   1.00
H2       0.49783    0.17744    0.21348   1.00
H2       0.45765    0.18005    0.17999   1.00
H2       0.49650    0.21502    0.17674   1.00
C3a      0.41845    0.27412    0.27763   1.00
H1       0.40300    0.29314    0.29765   1.00
C3a      0.41743    0.22455    0.22697   1.00
H1       0.40119    0.20528    0.20785   1.00
C2       0.39757    0.24917    0.25287   1.00
C2       0.89757    0.25083    0.25287   1.00
C3a      0.91884    0.27600    0.27707   1.00
H1       0.90369    0.29570    0.29665   1.00
C3a      0.91704    0.22533    0.22753   1.00
H1       0.90051    0.20588    0.20884   1.00
C3b      0.95938    0.27595    0.27621   1.00
C5       0.98144    0.30339    0.30261   1.00
H2       0.99984    0.32334    0.28498   1.00
H2       0.96161    0.32150    0.32073   1.00
H2       1.00060    0.28658    0.32256   1.00
C3b      0.95756    0.22472    0.22612   1.00
C5       0.97767    0.19694    0.19853   1.00
H2       0.99670    0.17669    0.21511   1.00
H2       0.95655    0.17916    0.18157   1.00
H2       0.99594    0.21345    0.17754   1.00
C4       0.97873    0.25017    0.25060   1.00
C4       1.02127    0.24983    0.24940   1.00
C3b      1.04101    0.27472    0.22322   1.00
C5       1.01937    0.30191    0.19621   1.00
H2       1.00129    0.32253    0.21338   1.00
H2       1.03949    0.31929    0.17770   1.00
H2       0.99995    0.28495    0.17664   1.00
C3b      1.04204    0.22461    0.27445   1.00
C5       1.02152    0.19776    0.30265   1.00
H2       1.00217    0.17744    0.28652   1.00
H2       1.04235    0.18005    0.32001   1.00
H2       1.00350    0.21502    0.32326   1.00
C3a      1.08155    0.27412    0.22237   1.00
H1       1.09700    0.29314    0.20235   1.00
C3a      1.08257    0.22455    0.27303   1.00
H1       1.09881    0.20528    0.29215   1.00
C2       1.10243    0.24917    0.24713   1.00
C2       0.74713    0.10243    0.25083   1.00
C3a      0.72293    0.08116    0.27600   1.00
H1       0.70335    0.09631    0.29570   1.00
C3a      0.77247    0.08296    0.22533   1.00
H1       0.79116    0.09949    0.20588   1.00
C3b      0.72379    0.04062    0.27595   1.00
C5       0.69739    0.01856    0.30339   1.00
H2       0.71502    0.00016    0.32334   1.00
H2       0.67927    0.03839    0.32150   1.00
H2       0.67744    -0.00060   0.28658   1.00
C3b      0.77388    0.04244    0.22472   1.00
C5       0.80147    0.02233    0.19694   1.00
H2       0.78489    0.00330    0.17669   1.00
H2       0.81843    0.04345    0.17916   1.00
H2       0.82246    0.00406    0.21345   1.00
C4       0.74940    0.02127    0.25017   1.00
C4       0.75060    -0.02127   0.24983   1.00
C3b      0.77678    -0.04101   0.27472   1.00
C5       0.80379    -0.01937   0.30191   1.00
H2       0.78662    -0.00129   0.32253   1.00
H2       0.82230    -0.03949   0.31929   1.00
H2       0.82336    0.00005    0.28495   1.00
C3b      0.72555    -0.04204   0.22461   1.00
C5       0.69735    -0.02152   0.19776   1.00
H2       0.71348    -0.00217   0.17744   1.00
H2       0.67999    -0.04235   0.18005   1.00
H2       0.67674    -0.00350   0.21502   1.00
C3a      0.77763    -0.08155   0.27412   1.00
H1       0.79765    -0.09700   0.29314   1.00
C3a      0.72697    -0.08257   0.22455   1.00
H1       0.70785    -0.09881   0.20528   1.00
C2       0.75287    -0.10243   0.24917   1.00
C2       0.75083    0.24713    0.10243   1.00
C3a      0.77600    0.22293    0.08116   1.00
H1       0.79570    0.20335    0.09631   1.00
C3a      0.72533    0.27247    0.08296   1.00
H1       0.70588    0.29116    0.09949   1.00
C3b      0.77595    0.22379    0.04062   1.00
C5       0.80339    0.19739    0.01856   1.00
H2       0.82334    0.21502    0.00016   1.00
H2       0.82150    0.17927    0.03839   1.00
H2       0.78658    0.17744    -0.00060   1.00
C3b      0.72472    0.27388    0.04244   1.00
C5       0.69694    0.30147    0.02233   1.00
H2       0.67669    0.28489    0.00330   1.00
H2       0.67916    0.31843    0.04345   1.00
H2       0.71345    0.32246    0.00406   1.00
C4       0.75017    0.24940    0.02127   1.00
C4       0.74983    0.25060    -0.02127   1.00
C3b      0.77472    0.27678    -0.04101   1.00
C5       0.80191    0.30379    -0.01937   1.00
H2       0.82253    0.28662    -0.00129   1.00
H2       0.81929    0.32230    -0.03949   1.00
H2       0.78495    0.32336    0.00005   1.00
C3b      0.72461    0.22555    -0.04204   1.00
C5       0.69776    0.19735    -0.02152   1.00
H2       0.67744    0.21348    -0.00217   1.00
H2       0.68005    0.17999    -0.04235   1.00
H2       0.71502    0.17674    -0.00350   1.00
C3a      0.77412    0.27763    -0.08155   1.00
H1       0.79314    0.29765    -0.09700   1.00
C3a      0.72455    0.22697    -0.08257   1.00
H1       0.70528    0.20785    -0.09881   1.00
C2       0.74917    0.25287    -0.10243   1.00
C2       1.00083    1.00287    1.14757   1.00
C3a      1.02600    1.02707    1.16884   1.00
H1       1.04570    1.04665    1.15369   1.00
C3a      0.97533    0.97753    1.16704   1.00
H1       0.95588    0.95884    1.15051   1.00
C3b      1.02595    1.02621    1.20938   1.00
C5       1.05339    1.05261    1.23144   1.00
H2       1.07334    1.03498    1.24984   1.00
H2       1.07150    1.07073    1.21161   1.00
H2       1.03658    1.07256    1.25060   1.00
C3b      0.97472    0.97612    1.20756   1.00
C5       0.94694    0.94853    1.22767   1.00
H2       0.92669    0.96511    1.24670   1.00
H2       0.92916    0.93157    1.20655   1.00
H2       0.96345    0.92754    1.24594   1.00
C4       1.00017    1.00060    1.22873   1.00
C4       0.99983    0.99940    1.27127   1.00
C3b      1.02472    0.97322    1.29101   1.00
C5       1.05191    0.94621    1.26937   1.00
H2       1.07253    0.96338    1.25129   1.00
H2       1.06929    0.92770    1.28949   1.00
H2       1.03495    0.92664    1.24995   1.00
C3b      0.97461    1.02445    1.29204   1.00
C5       0.94776    1.05265    1.27152   1.00
H2       0.92744    1.03652    1.25217   1.00
H2       0.93005    1.07001    1.29235   1.00
H2       0.96502    1.07326    1.25350   1.00
C3a      1.02412    0.97237    1.33155   1.00
H1       1.04314    0.95235    1.34700   1.00
C3a      0.97455    1.02303    1.33257   1.00
H1       0.95528    1.04215    1.34881   1.00
C2       0.99917    0.99713    1.35243   1.00
C2       1.00287    1.14757    1.00083   1.00
C3a      1.02707    1.16884    1.02600   1.00
H1       1.04665    1.15369    1.04570   1.00
C3a      0.97753    1.16704    0.97533   1.00
H1       0.95884    1.15051    0.95588   1.00
C3b      1.02621    1.20938    1.02595   1.00
C5       1.05261    1.23144    1.05339   1.00
H2       1.03498    1.24984    1.07334   1.00
H2       1.07073    1.21161    1.07150   1.00
H2       1.07256    1.25060    1.03658   1.00
C3b      0.97612    1.20756    0.97472   1.00
C5       0.94853    1.22767    0.94694   1.00
H2       0.96511    1.24670    0.92669   1.00
H2       0.93157    1.20655    0.92916   1.00
H2       0.92754    1.24594    0.96345   1.00
C4       1.00060    1.22873    1.00017   1.00
C4       0.99940    1.27127    0.99983   1.00
C3b      0.97322    1.29101    1.02472   1.00
C5       0.94621    1.26937    1.05191   1.00
H2       0.96338    1.25129    1.07253   1.00
H2       0.92770    1.28949    1.06929   1.00
H2       0.92664    1.24995    1.03495   1.00
C3b      1.02445    1.29204    0.97461   1.00
C5       1.05265    1.27152    0.94776   1.00
H2       1.03652    1.25217    0.92744   1.00
H2       1.07001    1.29235    0.93005   1.00
H2       1.07326    1.25350    0.96502   1.00
C3a      0.97237    1.33155    1.02412   1.00
H1       0.95235    1.34700    1.04314   1.00
C3a      1.02303    1.33257    0.97455   1.00
H1       1.04215    1.34881    0.95528   1.00
C2       0.99713    1.35243    0.99917   1.00
C2       0.85243    1.00083    0.99713   1.00
C3a      0.83116    1.02600    0.97293   1.00
H1       0.84631    1.04570    0.95335   1.00
C3a      0.83296    0.97533    1.02247   1.00
H1       0.84949    0.95588    1.04116   1.00
C3b      0.79062    1.02595    0.97379   1.00
C5       0.76856    1.05339    0.94739   1.00
H2       0.75016    1.07334    0.96502   1.00
H2       0.78839    1.07150    0.92927   1.00
H2       0.74940    1.03658    0.92744   1.00
C3b      0.79244    0.97472    1.02388   1.00
C5       0.77233    0.94694    1.05147   1.00
H2       0.75330    0.92669    1.03489   1.00
H2       0.79345    0.92916    1.06843   1.00
H2       0.75406    0.96345    1.07246   1.00
C4       0.77127    1.00017    0.99940   1.00
C4       0.72873    0.99983    1.00060   1.00
C3b      0.70899    1.02472    1.02678   1.00
C5       0.73063    1.05191    1.05379   1.00
H2       0.74871    1.07253    1.03662   1.00
H2       0.71051    1.06929    1.07230   1.00
H2       0.75005    1.03495    1.07336   1.00
C3b      0.70796    0.97461    0.97555   1.00
C5       0.72848    0.94776    0.94735   1.00
H2       0.74783    0.92744    0.96348   1.00
H2       0.70765    0.93005    0.92999   1.00
H2       0.74650    0.96502    0.92674   1.00
C3a      0.66845    1.02412    1.02763   1.00
H1       0.65300    1.04314    1.04765   1.00
C3a      0.66743    0.97455    0.97697   1.00
H1       0.65119    0.95528    0.95785   1.00
C2       0.64757    0.99917    1.00287   1.00
C2       1.14757    1.00083    1.00287   1.00
C3a      1.16884    1.02600    1.02707   1.00
H1       1.15369    1.04570    1.04665   1.00
C3a      1.16704    0.97533    0.97753   1.00
H1       1.15051    0.95588    0.95884   1.00
C3b      1.20938    1.02595    1.02621   1.00
C5       1.23144    1.05339    1.05261   1.00
H2       1.24984    1.07334    1.03498   1.00
H2       1.21161    1.07150    1.07073   1.00
H2       1.25060    1.03658    1.07256   1.00
C3b      1.20756    0.97472    0.97612   1.00
C5       1.22767    0.94694    0.94853   1.00
H2       1.24670    0.92669    0.96511   1.00
H2       1.20655    0.92916    0.93157   1.00
H2       1.24594    0.96345    0.92754   1.00
C4       1.22873    1.00017    1.00060   1.00
C4       1.27127    0.99983    0.99940   1.00
C3b      1.29101    1.02472    0.97322   1.00
C5       1.26937    1.05191    0.94621   1.00
H2       1.25129    1.07253    0.96338   1.00
H2       1.28949    1.06929    0.92770   1.00
H2       1.24995    1.03495    0.92664   1.00
C3b      1.29204    0.97461    1.02445   1.00
C5       1.27152    0.94776    1.05265   1.00
H2       1.25217    0.92744    1.03652   1.00
H2       1.29235    0.93005    1.07001   1.00
H2       1.25350    0.96502    1.07326   1.00
C3a      1.33155    1.02412    0.97237   1.00
H1       1.34700    1.04314    0.95235   1.00
C3a      1.33257    0.97455    1.02303   1.00
H1       1.34881    0.95528    1.04215   1.00
C2       1.35243    0.99917    0.99713   1.00
C2       0.99713    0.85243    1.00083   1.00
C3a      0.97293    0.83116    1.02600   1.00
H1       0.95335    0.84631    1.04570   1.00
C3a      1.02247    0.83296    0.97533   1.00
H1       1.04116    0.84949    0.95588   1.00
C3b      0.97379    0.79062    1.02595   1.00
C5       0.94739    0.76856    1.05339   1.00
H2       0.96502    0.75016    1.07334   1.00
H2       0.92927    0.78839    1.07150   1.00
H2       0.92744    0.74940    1.03658   1.00
C3b      1.02388    0.79244    0.97472   1.00
C5       1.05147    0.77233    0.94694   1.00
H2       1.03489    0.75330    0.92669   1.00
H2       1.06843    0.79345    0.92916   1.00
H2       1.07246    0.75406    0.96345   1.00
C4       0.99940    0.77127    1.00017   1.00
C4       1.00060    0.72873    0.99983   1.00
C3b      1.02678    0.70899    1.02472   1.00
C5       1.05379    0.73063    1.05191   1.00
H2       1.03662    0.74871    1.07253   1.00
H2       1.07230    0.71051    1.06929   1.00
H2       1.07336    0.75005    1.03495   1.00
C3b      0.97555    0.70796    0.97461   1.00
C5       0.94735    0.72848    0.94776   1.00
H2       0.96348    0.74783    0.92744   1.00
H2       0.92999    0.70765    0.93005   1.00
H2       0.92674    0.74650    0.96502   1.00
C3a      1.02763    0.66845    1.02412   1.00
H1       1.04765    0.65300    1.04314   1.00
C3a      0.97697    0.66743    0.97455   1.00
H1       0.95785    0.65119    0.95528   1.00
C2       1.00287    0.64757    0.99917   1.00
C2       1.00083    0.99713    0.85243   1.00
C3a      1.02600    0.97293    0.83116   1.00
H1       1.04570    0.95335    0.84631   1.00
C3a      0.97533    1.02247    0.83296   1.00
H1       0.95588    1.04116    0.84949   1.00
C3b      1.02595    0.97379    0.79062   1.00
C5       1.05339    0.94739    0.76856   1.00
H2       1.07334    0.96502    0.75016   1.00
H2       1.07150    0.92927    0.78839   1.00
H2       1.03658    0.92744    0.74940   1.00
C3b      0.97472    1.02388    0.79244   1.00
C5       0.94694    1.05147    0.77233   1.00
H2       0.92669    1.03489    0.75330   1.00
H2       0.92916    1.06843    0.79345   1.00
H2       0.96345    1.07246    0.75406   1.00
C4       1.00017    0.99940    0.77127   1.00
C4       0.99983    1.00060    0.72873   1.00
C3b      1.02472    1.02678    0.70899   1.00
C5       1.05191    1.05379    0.73063   1.00
H2       1.07253    1.03662    0.74871   1.00
H2       1.06929    1.07230    0.71051   1.00
H2       1.03495    1.07336    0.75005   1.00
C3b      0.97461    0.97555    0.70796   1.00
C5       0.94776    0.94735    0.72848   1.00
H2       0.92744    0.96348    0.74783   1.00
H2       0.93005    0.92999    0.70765   1.00
H2       0.96502    0.92674    0.74650   1.00
C3a      1.02412    1.02763    0.66845   1.00
H1       1.04314    1.04765    0.65300   1.00
C3a      0.97455    0.97697    0.66743   1.00
H1       0.95528    0.95785    0.65119   1.00
C2       0.99917    1.00287    0.64757   1.00
C2       0.50083    0.50287    1.14757   1.00
C3a      0.52600    0.52707    1.16884   1.00
H1       0.54570    0.54665    1.15369   1.00
C3a      0.47533    0.47753    1.16704   1.00
H1       0.45588    0.45884    1.15051   1.00
C3b      0.52595    0.52621    1.20938   1.00
C5       0.55339    0.55261    1.23144   1.00
H2       0.57334    0.53498    1.24984   1.00
H2       0.57150    0.57073    1.21161   1.00
H2       0.53658    0.57256    1.25060   1.00
C3b      0.47472    0.47612    1.20756   1.00
C5       0.44694    0.44853    1.22767   1.00
H2       0.42669    0.46511    1.24670   1.00
H2       0.42916    0.43157    1.20655   1.00
H2       0.46345    0.42754    1.24594   1.00
C4       0.50017    0.50060    1.22873   1.00
C4       0.49983    0.49940    1.27127   1.00
C3b      0.52472    0.47322    1.29101   1.00
C5       0.55191    0.44621    1.26937   1.00
H2       0.57253    0.46338    1.25129   1.00
H2       0.56929    0.42770    1.28949   1.00
H2       0.53495    0.42664    1.24995   1.00
C3b      0.47461    0.52445    1.29204   1.00
C5       0.44776    0.55265    1.27152   1.00
H2       0.42744    0.53652    1.25217   1.00
H2       0.43005    0.57001    1.29235   1.00
H2       0.46502    0.57326    1.25350   1.00
C3a      0.52412    0.47237    1.33155   1.00
H1       0.54314    0.45235    1.34700   1.00
C3a      0.47455    0.52303    1.33257   1.00
H1       0.45528    0.54215    1.34881   1.00
C2       0.49917    0.49713    1.35243   1.00
C2       0.50287    0.64757    1.00083   1.00
C3a      0.52707    0.66884    1.02600   1.00
H1       0.54665    0.65369    1.04570   1.00
C3a      0.47753    0.66704    0.97533   1.00
H1       0.45884    0.65051    0.95588   1.00
C3b      0.52621    0.70938    1.02595   1.00
C5       0.55261    0.73144    1.05339   1.00
H2       0.53498    0.74984    1.07334   1.00
H2       0.57073    0.71161    1.07150   1.00
H2       0.57256    0.75060    1.03658   1.00
C3b      0.47612    0.70756    0.97472   1.00
C5       0.44853    0.72767    0.94694   1.00
H2       0.46511    0.74670    0.92669   1.00
H2       0.43157    0.70655    0.92916   1.00
H2       0.42754    0.74594    0.96345   1.00
C4       0.50060    0.72873    1.00017   1.00
C4       0.49940    0.77127    0.99983   1.00
C3b      0.47322    0.79101    1.02472   1.00
C5       0.44621    0.76937    1.05191   1.00
H2       0.46338    0.75129    1.07253   1.00
H2       0.42770    0.78949    1.06929   1.00
H2       0.42664    0.74995    1.03495   1.00
C3b      0.52445    0.79204    0.97461   1.00
C5       0.55265    0.77152    0.94776   1.00
H2       0.53652    0.75217    0.92744   1.00
H2       0.57001    0.79235    0.93005   1.00
H2       0.57326    0.75350    0.96502   1.00
C3a      0.47237    0.83155    1.02412   1.00
H1       0.45235    0.84700    1.04314   1.00
C3a      0.52303    0.83257    0.97455   1.00
H1       0.54215    0.84881    0.95528   1.00
C2       0.49713    0.85243    0.99917   1.00
C2       0.35243    0.50083    0.99713   1.00
C3a      0.33116    0.52600    0.97293   1.00
H1       0.34631    0.54570    0.95335   1.00
C3a      0.33296    0.47533    1.02247   1.00
H1       0.34949    0.45588    1.04116   1.00
C3b      0.29062    0.52595    0.97379   1.00
C5       0.26856    0.55339    0.94739   1.00
H2       0.25016    0.57334    0.96502   1.00
H2       0.28839    0.57150    0.92927   1.00
H2       0.24940    0.53658    0.92744   1.00
C3b      0.29244    0.47472    1.02388   1.00
C5       0.27233    0.44694    1.05147   1.00
H2       0.25330    0.42669    1.03489   1.00
H2       0.29345    0.42916    1.06843   1.00
H2       0.25406    0.46345    1.07246   1.00
C4       0.27127    0.50017    0.99940   1.00
C4       0.22873    0.49983    1.00060   1.00
C3b      0.20899    0.52472    1.02678   1.00
C5       0.23063    0.55191    1.05379   1.00
H2       0.24871    0.57253    1.03662   1.00
H2       0.21051    0.56929    1.07230   1.00
H2       0.25005    0.53495    1.07336   1.00
C3b      0.20796    0.47461    0.97555   1.00
C5       0.22848    0.44776    0.94735   1.00
H2       0.24783    0.42744    0.96348   1.00
H2       0.20765    0.43005    0.92999   1.00
H2       0.24650    0.46502    0.92674   1.00
C3a      0.16845    0.52412    1.02763   1.00
H1       0.15300    0.54314    1.04765   1.00
C3a      0.16743    0.47455    0.97697   1.00
H1       0.15119    0.45528    0.95785   1.00
C2       0.14757    0.49917    1.00287   1.00
C2       0.64757    0.50083    1.00287   1.00
C3a      0.66884    0.52600    1.02707   1.00
H1       0.65369    0.54570    1.04665   1.00
C3a      0.66704    0.47533    0.97753   1.00
H1       0.65051    0.45588    0.95884   1.00
C3b      0.70938    0.52595    1.02621   1.00
C5       0.73144    0.55339    1.05261   1.00
H2       0.74984    0.57334    1.03498   1.00
H2       0.71161    0.57150    1.07073   1.00
H2       0.75060    0.53658    1.07256   1.00
C3b      0.70756    0.47472    0.97612   1.00
C5       0.72767    0.44694    0.94853   1.00
H2       0.74670    0.42669    0.96511   1.00
H2       0.70655    0.42916    0.93157   1.00
H2       0.74594    0.46345    0.92754   1.00
C4       0.72873    0.50017    1.00060   1.00
C4       0.77127    0.49983    0.99940   1.00
C3b      0.79101    0.52472    0.97322   1.00
C5       0.76937    0.55191    0.94621   1.00
H2       0.75129    0.57253    0.96338   1.00
H2       0.78949    0.56929    0.92770   1.00
H2       0.74995    0.53495    0.92664   1.00
C3b      0.79204    0.47461    1.02445   1.00
C5       0.77152    0.44776    1.05265   1.00
H2       0.75217    0.42744    1.03652   1.00
H2       0.79235    0.43005    1.07001   1.00
H2       0.75350    0.46502    1.07326   1.00
C3a      0.83155    0.52412    0.97237   1.00
H1       0.84700    0.54314    0.95235   1.00
C3a      0.83257    0.47455    1.02303   1.00
H1       0.84881    0.45528    1.04215   1.00
C2       0.85243    0.49917    0.99713   1.00
C2       0.49713    0.35243    1.00083   1.00
C3a      0.47293    0.33116    1.02600   1.00
H1       0.45335    0.34631    1.04570   1.00
C3a      0.52247    0.33296    0.97533   1.00
H1       0.54116    0.34949    0.95588   1.00
C3b      0.47379    0.29062    1.02595   1.00
C5       0.44739    0.26856    1.05339   1.00
H2       0.46502    0.25016    1.07334   1.00
H2       0.42927    0.28839    1.07150   1.00
H2       0.42744    0.24940    1.03658   1.00
C3b      0.52388    0.29244    0.97472   1.00
C5       0.55147    0.27233    0.94694   1.00
H2       0.53489    0.25330    0.92669   1.00
H2       0.56843    0.29345    0.92916   1.00
H2       0.57246    0.25406    0.96345   1.00
C4       0.49940    0.27127    1.00017   1.00
C4       0.50060    0.22873    0.99983   1.00
C3b      0.52678    0.20899    1.02472   1.00
C5       0.55379    0.23063    1.05191   1.00
H2       0.53662    0.24871    1.07253   1.00
H2       0.57230    0.21051    1.06929   1.00
H2       0.57336    0.25005    1.03495   1.00
C3b      0.47555    0.20796    0.97461   1.00
C5       0.44735    0.22848    0.94776   1.00
H2       0.46348    0.24783    0.92744   1.00
H2       0.42999    0.20765    0.93005   1.00
H2       0.42674    0.24650    0.96502   1.00
C3a      0.52763    0.16845    1.02412   1.00
H1       0.54765    0.15300    1.04314   1.00
C3a      0.47697    0.16743    0.97455   1.00
H1       0.45785    0.15119    0.95528   1.00
C2       0.50287    0.14757    0.99917   1.00
C2       0.50083    0.49713    0.85243   1.00
C3a      0.52600    0.47293    0.83116   1.00
H1       0.54570    0.45335    0.84631   1.00
C3a      0.47533    0.52247    0.83296   1.00
H1       0.45588    0.54116    0.84949   1.00
C3b      0.52595    0.47379    0.79062   1.00
C5       0.55339    0.44739    0.76856   1.00
H2       0.57334    0.46502    0.75016   1.00
H2       0.57150    0.42927    0.78839   1.00
H2       0.53658    0.42744    0.74940   1.00
C3b      0.47472    0.52388    0.79244   1.00
C5       0.44694    0.55147    0.77233   1.00
H2       0.42669    0.53489    0.75330   1.00
H2       0.42916    0.56843    0.79345   1.00
H2       0.46345    0.57246    0.75406   1.00
C4       0.50017    0.49940    0.77127   1.00
C4       0.49983    0.50060    0.72873   1.00
C3b      0.52472    0.52678    0.70899   1.00
C5       0.55191    0.55379    0.73063   1.00
H2       0.57253    0.53662    0.74871   1.00
H2       0.56929    0.57230    0.71051   1.00
H2       0.53495    0.57336    0.75005   1.00
C3b      0.47461    0.47555    0.70796   1.00
C5       0.44776    0.44735    0.72848   1.00
H2       0.42744    0.46348    0.74783   1.00
H2       0.43005    0.42999    0.70765   1.00
H2       0.46502    0.42674    0.74650   1.00
C3a      0.52412    0.52763    0.66845   1.00
H1       0.54314    0.54765    0.65300   1.00
C3a      0.47455    0.47697    0.66743   1.00
H1       0.45528    0.45785    0.65119   1.00
C2       0.49917    0.50287    0.64757   1.00
C2       0.50083    1.00287    0.64757   1.00
C3a      0.52600    1.02707    0.66884   1.00
H1       0.54570    1.04665    0.65369   1.00
C3a      0.47533    0.97753    0.66704   1.00
H1       0.45588    0.95884    0.65051   1.00
C3b      0.52595    1.02621    0.70938   1.00
C5       0.55339    1.05261    0.73144   1.00
H2       0.57334    1.03498    0.74984   1.00
H2       0.57150    1.07073    0.71161   1.00
H2       0.53658    1.07256    0.75060   1.00
C3b      0.47472    0.97612    0.70756   1.00
C5       0.44694    0.94853    0.72767   1.00
H2       0.42669    0.96511    0.74670   1.00
H2       0.42916    0.93157    0.70655   1.00
H2       0.46345    0.92754    0.74594   1.00
C4       0.50017    1.00060    0.72873   1.00
C4       0.49983    0.99940    0.77127   1.00
C3b      0.52472    0.97322    0.79101   1.00
C5       0.55191    0.94621    0.76937   1.00
H2       0.57253    0.96338    0.75129   1.00
H2       0.56929    0.92770    0.78949   1.00
H2       0.53495    0.92664    0.74995   1.00
C3b      0.47461    1.02445    0.79204   1.00
C5       0.44776    1.05265    0.77152   1.00
H2       0.42744    1.03652    0.75217   1.00
H2       0.43005    1.07001    0.79235   1.00
H2       0.46502    1.07326    0.75350   1.00
C3a      0.52412    0.97237    0.83155   1.00
H1       0.54314    0.95235    0.84700   1.00
C3a      0.47455    1.02303    0.83257   1.00
H1       0.45528    1.04215    0.84881   1.00
C2       0.49917    0.99713    0.85243   1.00
C2       0.50287    1.14757    0.50083   1.00
C3a      0.52707    1.16884    0.52600   1.00
H1       0.54665    1.15369    0.54570   1.00
C3a      0.47753    1.16704    0.47533   1.00
H1       0.45884    1.15051    0.45588   1.00
C3b      0.52621    1.20938    0.52595   1.00
C5       0.55261    1.23144    0.55339   1.00
H2       0.53498    1.24984    0.57334   1.00
H2       0.57073    1.21161    0.57150   1.00
H2       0.57256    1.25060    0.53658   1.00
C3b      0.47612    1.20756    0.47472   1.00
C5       0.44853    1.22767    0.44694   1.00
H2       0.46511    1.24670    0.42669   1.00
H2       0.43157    1.20655    0.42916   1.00
H2       0.42754    1.24594    0.46345   1.00
C4       0.50060    1.22873    0.50017   1.00
C4       0.49940    1.27127    0.49983   1.00
C3b      0.47322    1.29101    0.52472   1.00
C5       0.44621    1.26937    0.55191   1.00
H2       0.46338    1.25129    0.57253   1.00
H2       0.42770    1.28949    0.56929   1.00
H2       0.42664    1.24995    0.53495   1.00
C3b      0.52445    1.29204    0.47461   1.00
C5       0.55265    1.27152    0.44776   1.00
H2       0.53652    1.25217    0.42744   1.00
H2       0.57001    1.29235    0.43005   1.00
H2       0.57326    1.25350    0.46502   1.00
C3a      0.47237    1.33155    0.52412   1.00
H1       0.45235    1.34700    0.54314   1.00
C3a      0.52303    1.33257    0.47455   1.00
H1       0.54215    1.34881    0.45528   1.00
C2       0.49713    1.35243    0.49917   1.00
C2       0.35243    1.00083    0.49713   1.00
C3a      0.33116    1.02600    0.47293   1.00
H1       0.34631    1.04570    0.45335   1.00
C3a      0.33296    0.97533    0.52247   1.00
H1       0.34949    0.95588    0.54116   1.00
C3b      0.29062    1.02595    0.47379   1.00
C5       0.26856    1.05339    0.44739   1.00
H2       0.25016    1.07334    0.46502   1.00
H2       0.28839    1.07150    0.42927   1.00
H2       0.24940    1.03658    0.42744   1.00
C3b      0.29244    0.97472    0.52388   1.00
C5       0.27233    0.94694    0.55147   1.00
H2       0.25330    0.92669    0.53489   1.00
H2       0.29345    0.92916    0.56843   1.00
H2       0.25406    0.96345    0.57246   1.00
C4       0.27127    1.00017    0.49940   1.00
C4       0.22873    0.99983    0.50060   1.00
C3b      0.20899    1.02472    0.52678   1.00
C5       0.23063    1.05191    0.55379   1.00
H2       0.24871    1.07253    0.53662   1.00
H2       0.21051    1.06929    0.57230   1.00
H2       0.25005    1.03495    0.57336   1.00
C3b      0.20796    0.97461    0.47555   1.00
C5       0.22848    0.94776    0.44735   1.00
H2       0.24783    0.92744    0.46348   1.00
H2       0.20765    0.93005    0.42999   1.00
H2       0.24650    0.96502    0.42674   1.00
C3a      0.16845    1.02412    0.52763   1.00
H1       0.15300    1.04314    0.54765   1.00
C3a      0.16743    0.97455    0.47697   1.00
H1       0.15119    0.95528    0.45785   1.00
C2       0.14757    0.99917    0.50287   1.00
C2       0.64757    1.00083    0.50287   1.00
C3a      0.66884    1.02600    0.52707   1.00
H1       0.65369    1.04570    0.54665   1.00
C3a      0.66704    0.97533    0.47753   1.00
H1       0.65051    0.95588    0.45884   1.00
C3b      0.70938    1.02595    0.52621   1.00
C5       0.73144    1.05339    0.55261   1.00
H2       0.74984    1.07334    0.53498   1.00
H2       0.71161    1.07150    0.57073   1.00
H2       0.75060    1.03658    0.57256   1.00
C3b      0.70756    0.97472    0.47612   1.00
C5       0.72767    0.94694    0.44853   1.00
H2       0.74670    0.92669    0.46511   1.00
H2       0.70655    0.92916    0.43157   1.00
H2       0.74594    0.96345    0.42754   1.00
C4       0.72873    1.00017    0.50060   1.00
C4       0.77127    0.99983    0.49940   1.00
C3b      0.79101    1.02472    0.47322   1.00
C5       0.76937    1.05191    0.44621   1.00
H2       0.75129    1.07253    0.46338   1.00
H2       0.78949    1.06929    0.42770   1.00
H2       0.74995    1.03495    0.42664   1.00
C3b      0.79204    0.97461    0.52445   1.00
C5       0.77152    0.94776    0.55265   1.00
H2       0.75217    0.92744    0.53652   1.00
H2       0.79235    0.93005    0.57001   1.00
H2       0.75350    0.96502    0.57326   1.00
C3a      0.83155    1.02412    0.47237   1.00
H1       0.84700    1.04314    0.45235   1.00
C3a      0.83257    0.97455    0.52303   1.00
H1       0.84881    0.95528    0.54215   1.00
C2       0.85243    0.99917    0.49713   1.00
C2       0.49713    0.85243    0.50083   1.00
C3a      0.47293    0.83116    0.52600   1.00
H1       0.45335    0.84631    0.54570   1.00
C3a      0.52247    0.83296    0.47533   1.00
H1       0.54116    0.84949    0.45588   1.00
C3b      0.47379    0.79062    0.52595   1.00
C5       0.44739    0.76856    0.55339   1.00
H2       0.46502    0.75016    0.57334   1.00
H2       0.42927    0.78839    0.57150   1.00
H2       0.42744    0.74940    0.53658   1.00
C3b      0.52388    0.79244    0.47472   1.00
C5       0.55147    0.77233    0.44694   1.00
H2       0.53489    0.75330    0.42669   1.00
H2       0.56843    0.79345    0.42916   1.00
H2       0.57246    0.75406    0.46345   1.00
C4       0.49940    0.77127    0.50017   1.00
C4       0.50060    0.72873    0.49983   1.00
C3b      0.52678    0.70899    0.52472   1.00
C5       0.55379    0.73063    0.55191   1.00
H2       0.53662    0.74871    0.57253   1.00
H2       0.57230    0.71051    0.56929   1.00
H2       0.57336    0.75005    0.53495   1.00
C3b      0.47555    0.70796    0.47461   1.00
C5       0.44735    0.72848    0.44776   1.00
H2       0.46348    0.74783    0.42744   1.00
H2       0.42999    0.70765    0.43005   1.00
H2       0.42674    0.74650    0.46502   1.00
C3a      0.52763    0.66845    0.52412   1.00
H1       0.54765    0.65300    0.54314   1.00
C3a      0.47697    0.66743    0.47455   1.00
H1       0.45785    0.65119    0.45528   1.00
C2       0.50287    0.64757    0.49917   1.00
C2       0.50083    0.99713    0.35243   1.00
C3a      0.52600    0.97293    0.33116   1.00
H1       0.54570    0.95335    0.34631   1.00
C3a      0.47533    1.02247    0.33296   1.00
H1       0.45588    1.04116    0.34949   1.00
C3b      0.52595    0.97379    0.29062   1.00
C5       0.55339    0.94739    0.26856   1.00
H2       0.57334    0.96502    0.25016   1.00
H2       0.57150    0.92927    0.28839   1.00
H2       0.53658    0.92744    0.24940   1.00
C3b      0.47472    1.02388    0.29244   1.00
C5       0.44694    1.05147    0.27233   1.00
H2       0.42669    1.03489    0.25330   1.00
H2       0.42916    1.06843    0.29345   1.00
H2       0.46345    1.07246    0.25406   1.00
C4       0.50017    0.99940    0.27127   1.00
C4       0.49983    1.00060    0.22873   1.00
C3b      0.52472    1.02678    0.20899   1.00
C5       0.55191    1.05379    0.23063   1.00
H2       0.57253    1.03662    0.24871   1.00
H2       0.56929    1.07230    0.21051   1.00
H2       0.53495    1.07336    0.25005   1.00
C3b      0.47461    0.97555    0.20796   1.00
C5       0.44776    0.94735    0.22848   1.00
H2       0.42744    0.96348    0.24783   1.00
H2       0.43005    0.92999    0.20765   1.00
H2       0.46502    0.92674    0.24650   1.00
C3a      0.52412    1.02763    0.16845   1.00
H1       0.54314    1.04765    0.15300   1.00
C3a      0.47455    0.97697    0.16743   1.00
H1       0.45528    0.95785    0.15119   1.00
C2       0.49917    1.00287    0.14757   1.00
C2       1.00083    0.50287    0.64757   1.00
C3a      1.02600    0.52707    0.66884   1.00
H1       1.04570    0.54665    0.65369   1.00
C3a      0.97533    0.47753    0.66704   1.00
H1       0.95588    0.45884    0.65051   1.00
C3b      1.02595    0.52621    0.70938   1.00
C5       1.05339    0.55261    0.73144   1.00
H2       1.07334    0.53498    0.74984   1.00
H2       1.07150    0.57073    0.71161   1.00
H2       1.03658    0.57256    0.75060   1.00
C3b      0.97472    0.47612    0.70756   1.00
C5       0.94694    0.44853    0.72767   1.00
H2       0.92669    0.46511    0.74670   1.00
H2       0.92916    0.43157    0.70655   1.00
H2       0.96345    0.42754    0.74594   1.00
C4       1.00017    0.50060    0.72873   1.00
C4       0.99983    0.49940    0.77127   1.00
C3b      1.02472    0.47322    0.79101   1.00
C5       1.05191    0.44621    0.76937   1.00
H2       1.07253    0.46338    0.75129   1.00
H2       1.06929    0.42770    0.78949   1.00
H2       1.03495    0.42664    0.74995   1.00
C3b      0.97461    0.52445    0.79204   1.00
C5       0.94776    0.55265    0.77152   1.00
H2       0.92744    0.53652    0.75217   1.00
H2       0.93005    0.57001    0.79235   1.00
H2       0.96502    0.57326    0.75350   1.00
C3a      1.02412    0.47237    0.83155   1.00
H1       1.04314    0.45235    0.84700   1.00
C3a      0.97455    0.52303    0.83257   1.00
H1       0.95528    0.54215    0.84881   1.00
C2       0.99917    0.49713    0.85243   1.00
C2       1.00287    0.64757    0.50083   1.00
C3a      1.02707    0.66884    0.52600   1.00
H1       1.04665    0.65369    0.54570   1.00
C3a      0.97753    0.66704    0.47533   1.00
H1       0.95884    0.65051    0.45588   1.00
C3b      1.02621    0.70938    0.52595   1.00
C5       1.05261    0.73144    0.55339   1.00
H2       1.03498    0.74984    0.57334   1.00
H2       1.07073    0.71161    0.57150   1.00
H2       1.07256    0.75060    0.53658   1.00
C3b      0.97612    0.70756    0.47472   1.00
C5       0.94853    0.72767    0.44694   1.00
H2       0.96511    0.74670    0.42669   1.00
H2       0.93157    0.70655    0.42916   1.00
H2       0.92754    0.74594    0.46345   1.00
C4       1.00060    0.72873    0.50017   1.00
C4       0.99940    0.77127    0.49983   1.00
C3b      0.97322    0.79101    0.52472   1.00
C5       0.94621    0.76937    0.55191   1.00
H2       0.96338    0.75129    0.57253   1.00
H2       0.92770    0.78949    0.56929   1.00
H2       0.92664    0.74995    0.53495   1.00
C3b      1.02445    0.79204    0.47461   1.00
C5       1.05265    0.77152    0.44776   1.00
H2       1.03652    0.75217    0.42744   1.00
H2       1.07001    0.79235    0.43005   1.00
H2       1.07326    0.75350    0.46502   1.00
C3a      0.97237    0.83155    0.52412   1.00
H1       0.95235    0.84700    0.54314   1.00
C3a      1.02303    0.83257    0.47455   1.00
H1       1.04215    0.84881    0.45528   1.00
C2       0.99713    0.85243    0.49917   1.00
C2       0.85243    0.50083    0.49713   1.00
C3a      0.83116    0.52600    0.47293   1.00
H1       0.84631    0.54570    0.45335   1.00
C3a      0.83296    0.47533    0.52247   1.00
H1       0.84949    0.45588    0.54116   1.00
C3b      0.79062    0.52595    0.47379   1.00
C5       0.76856    0.55339    0.44739   1.00
H2       0.75016    0.57334    0.46502   1.00
H2       0.78839    0.57150    0.42927   1.00
H2       0.74940    0.53658    0.42744   1.00
C3b      0.79244    0.47472    0.52388   1.00
C5       0.77233    0.44694    0.55147   1.00
H2       0.75330    0.42669    0.53489   1.00
H2       0.79345    0.42916    0.56843   1.00
H2       0.75406    0.46345    0.57246   1.00
C4       0.77127    0.50017    0.49940   1.00
C4       0.72873    0.49983    0.50060   1.00
C3b      0.70899    0.52472    0.52678   1.00
C5       0.73063    0.55191    0.55379   1.00
H2       0.74871    0.57253    0.53662   1.00
H2       0.71051    0.56929    0.57230   1.00
H2       0.75005    0.53495    0.57336   1.00
C3b      0.70796    0.47461    0.47555   1.00
C5       0.72848    0.44776    0.44735   1.00
H2       0.74783    0.42744    0.46348   1.00
H2       0.70765    0.43005    0.42999   1.00
H2       0.74650    0.46502    0.42674   1.00
C3a      0.66845    0.52412    0.52763   1.00
H1       0.65300    0.54314    0.54765   1.00
C3a      0.66743    0.47455    0.47697   1.00
H1       0.65119    0.45528    0.45785   1.00
C2       0.64757    0.49917    0.50287   1.00
C2       1.14757    0.50083    0.50287   1.00
C3a      1.16884    0.52600    0.52707   1.00
H1       1.15369    0.54570    0.54665   1.00
C3a      1.16704    0.47533    0.47753   1.00
H1       1.15051    0.45588    0.45884   1.00
C3b      1.20938    0.52595    0.52621   1.00
C5       1.23144    0.55339    0.55261   1.00
H2       1.24984    0.57334    0.53498   1.00
H2       1.21161    0.57150    0.57073   1.00
H2       1.25060    0.53658    0.57256   1.00
C3b      1.20756    0.47472    0.47612   1.00
C5       1.22767    0.44694    0.44853   1.00
H2       1.24670    0.42669    0.46511   1.00
H2       1.20655    0.42916    0.43157   1.00
H2       1.24594    0.46345    0.42754   1.00
C4       1.22873    0.50017    0.50060   1.00
C4       1.27127    0.49983    0.49940   1.00
C3b      1.29101    0.52472    0.47322   1.00
C5       1.26937    0.55191    0.44621   1.00
H2       1.25129    0.57253    0.46338   1.00
H2       1.28949    0.56929    0.42770   1.00
H2       1.24995    0.53495    0.42664   1.00
C3b      1.29204    0.47461    0.52445   1.00
C5       1.27152    0.44776    0.55265   1.00
H2       1.25217    0.42744    0.53652   1.00
H2       1.29235    0.43005    0.57001   1.00
H2       1.25350    0.46502    0.57326   1.00
C3a      1.33155    0.52412    0.47237   1.00
H1       1.34700    0.54314    0.45235   1.00
C3a      1.33257    0.47455    0.52303   1.00
H1       1.34881    0.45528    0.54215   1.00
C2       1.35243    0.49917    0.49713   1.00
C2       0.99713    0.35243    0.50083   1.00
C3a      0.97293    0.33116    0.52600   1.00
H1       0.95335    0.34631    0.54570   1.00
C3a      1.02247    0.33296    0.47533   1.00
H1       1.04116    0.34949    0.45588   1.00
C3b      0.97379    0.29062    0.52595   1.00
C5       0.94739    0.26856    0.55339   1.00
H2       0.96502    0.25016    0.57334   1.00
H2       0.92927    0.28839    0.57150   1.00
H2       0.92744    0.24940    0.53658   1.00
C3b      1.02388    0.29244    0.47472   1.00
C5       1.05147    0.27233    0.44694   1.00
H2       1.03489    0.25330    0.42669   1.00
H2       1.06843    0.29345    0.42916   1.00
H2       1.07246    0.25406    0.46345   1.00
C4       0.99940    0.27127    0.50017   1.00
C4       1.00060    0.22873    0.49983   1.00
C3b      1.02678    0.20899    0.52472   1.00
C5       1.05379    0.23063    0.55191   1.00
H2       1.03662    0.24871    0.57253   1.00
H2       1.07230    0.21051    0.56929   1.00
H2       1.07336    0.25005    0.53495   1.00
C3b      0.97555    0.20796    0.47461   1.00
C5       0.94735    0.22848    0.44776   1.00
H2       0.96348    0.24783    0.42744   1.00
H2       0.92999    0.20765    0.43005   1.00
H2       0.92674    0.24650    0.46502   1.00
C3a      1.02763    0.16845    0.52412   1.00
H1       1.04765    0.15300    0.54314   1.00
C3a      0.97697    0.16743    0.47455   1.00
H1       0.95785    0.15119    0.45528   1.00
C2       1.00287    0.14757    0.49917   1.00
C2       1.00083    0.49713    0.35243   1.00
C3a      1.02600    0.47293    0.33116   1.00
H1       1.04570    0.45335    0.34631   1.00
C3a      0.97533    0.52247    0.33296   1.00
H1       0.95588    0.54116    0.34949   1.00
C3b      1.02595    0.47379    0.29062   1.00
C5       1.05339    0.44739    0.26856   1.00
H2       1.07334    0.46502    0.25016   1.00
H2       1.07150    0.42927    0.28839   1.00
H2       1.03658    0.42744    0.24940   1.00
C3b      0.97472    0.52388    0.29244   1.00
C5       0.94694    0.55147    0.27233   1.00
H2       0.92669    0.53489    0.25330   1.00
H2       0.92916    0.56843    0.29345   1.00
H2       0.96345    0.57246    0.25406   1.00
C4       1.00017    0.49940    0.27127   1.00
C4       0.99983    0.50060    0.22873   1.00
C3b      1.02472    0.52678    0.20899   1.00
C5       1.05191    0.55379    0.23063   1.00
H2       1.07253    0.53662    0.24871   1.00
H2       1.06929    0.57230    0.21051   1.00
H2       1.03495    0.57336    0.25005   1.00
C3b      0.97461    0.47555    0.20796   1.00
C5       0.94776    0.44735    0.22848   1.00
H2       0.92744    0.46348    0.24783   1.00
H2       0.93005    0.42999    0.20765   1.00
H2       0.96502    0.42674    0.24650   1.00
C3a      1.02412    0.52763    0.16845   1.00
H1       1.04314    0.54765    0.15300   1.00
C3a      0.97455    0.47697    0.16743   1.00
H1       0.95528    0.45785    0.15119   1.00
C2       0.99917    0.50287    0.14757   1.00
