data_IRMOF10_SG202_interpen_Ligand1lp_label_f.

_audit_creation_method             'generated by an auxiliary program of Tobunporous'

_symmetry_space_group_name_H-M     'P 1'
_symmetry_Int_Tables_number        1
_symmetry_cell_setting             triclinic

_cell_length_a                    34.2800
_cell_length_b                    34.2800
_cell_length_c                    34.2800
_cell_angle_alpha                 90.0000
_cell_angle_beta                  90.0000
_cell_angle_gamma                 90.0000

loop_
_atom_site_label
_atom_site_fract_x
_atom_site_fract_y
_atom_site_fract_z
_atom_site_occupancy
O1       0.75000    0.75000    0.75000   1.00
Zn1      0.71720    0.78280    0.78280   1.00
Zn1      0.78280    0.71720    0.78280   1.00
Zn1      0.78280    0.78280    0.71720   1.00
Zn1      0.71720    0.71720    0.71720   1.00
O2       0.72650    0.77350    0.83820   1.00
O2       0.72650    0.83820    0.77350   1.00
O2       0.66180    0.77350    0.77350   1.00
O2       0.77350    0.72650    0.83820   1.00
O2       0.83820    0.72650    0.77350   1.00
O2       0.77350    0.66180    0.77350   1.00
O2       0.77350    0.83820    0.72650   1.00
O2       0.83820    0.77350    0.72650   1.00
O2       0.77350    0.77350    0.66180   1.00
O2       0.66180    0.72650    0.72650   1.00
O2       0.72650    0.66180    0.72650   1.00
O2       0.72650    0.72650    0.66180   1.00
C1       0.75000    0.75000    0.85520   1.00
C1       0.75000    0.85520    0.75000   1.00
C1       0.64480    0.75000    0.75000   1.00
C1       0.85520    0.75000    0.75000   1.00
C1       0.75000    0.64480    0.75000   1.00
C1       0.75000    0.75000    0.64480   1.00
O1       0.25000    0.25000    0.75000   1.00
Zn1      0.21720    0.28280    0.78280   1.00
Zn1      0.28280    0.21720    0.78280   1.00
Zn1      0.28280    0.28280    0.71720   1.00
Zn1      0.21720    0.21720    0.71720   1.00
O2       0.22650    0.27350    0.83820   1.00
O2       0.22650    0.33820    0.77350   1.00
O2       0.16180    0.27350    0.77350   1.00
O2       0.27350    0.22650    0.83820   1.00
O2       0.33820    0.22650    0.77350   1.00
O2       0.27350    0.16180    0.77350   1.00
O2       0.27350    0.33820    0.72650   1.00
O2       0.33820    0.27350    0.72650   1.00
O2       0.27350    0.27350    0.66180   1.00
O2       0.16180    0.22650    0.72650   1.00
O2       0.22650    0.16180    0.72650   1.00
O2       0.22650    0.22650    0.66180   1.00
C1       0.25000    0.25000    0.85520   1.00
C1       0.25000    0.35520    0.75000   1.00
C1       0.14480    0.25000    0.75000   1.00
C1       0.35520    0.25000    0.75000   1.00
C1       0.25000    0.14480    0.75000   1.00
C1       0.25000    0.25000    0.64480   1.00
O1       0.25000    0.75000    0.25000   1.00
Zn1      0.21720    0.78280    0.28280   1.00
Zn1      0.28280    0.71720    0.28280   1.00
Zn1      0.28280    0.78280    0.21720   1.00
Zn1      0.21720    0.71720    0.21720   1.00
O2       0.22650    0.77350    0.33820   1.00
O2       0.22650    0.83820    0.27350   1.00
O2       0.16180    0.77350    0.27350   1.00
O2       0.27350    0.72650    0.33820   1.00
O2       0.33820    0.72650    0.27350   1.00
O2       0.27350    0.66180    0.27350   1.00
O2       0.27350    0.83820    0.22650   1.00
O2       0.33820    0.77350    0.22650   1.00
O2       0.27350    0.77350    0.16180   1.00
O2       0.16180    0.72650    0.22650   1.00
O2       0.22650    0.66180    0.22650   1.00
O2       0.22650    0.72650    0.16180   1.00
C1       0.25000    0.75000    0.35520   1.00
C1       0.25000    0.85520    0.25000   1.00
C1       0.14480    0.75000    0.25000   1.00
C1       0.35520    0.75000    0.25000   1.00
C1       0.25000    0.64480    0.25000   1.00
C1       0.25000    0.75000    0.14480   1.00
O1       0.75000    0.25000    0.25000   1.00
Zn1      0.71720    0.28280    0.28280   1.00
Zn1      0.78280    0.21720    0.28280   1.00
Zn1      0.78280    0.28280    0.21720   1.00
Zn1      0.71720    0.21720    0.21720   1.00
O2       0.72650    0.27350    0.33820   1.00
O2       0.72650    0.33820    0.27350   1.00
O2       0.66180    0.27350    0.27350   1.00
O2       0.77350    0.22650    0.33820   1.00
O2       0.83820    0.22650    0.27350   1.00
O2       0.77350    0.16180    0.27350   1.00
O2       0.77350    0.33820    0.22650   1.00
O2       0.83820    0.27350    0.22650   1.00
O2       0.77350    0.27350    0.16180   1.00
O2       0.66180    0.22650    0.22650   1.00
O2       0.72650    0.16180    0.22650   1.00
O2       0.72650    0.22650    0.16180   1.00
C1       0.75000    0.25000    0.35520   1.00
C1       0.75000    0.35520    0.25000   1.00
C1       0.64480    0.25000    0.25000   1.00
C1       0.85520    0.25000    0.25000   1.00
C1       0.75000    0.14480    0.25000   1.00
C1       0.75000    0.25000    0.14480   1.00
O1       0.25000    0.25000    0.25000   1.00
Zn1      0.28280    0.21720    0.21720   1.00
Zn1      0.21720    0.28280    0.21720   1.00
Zn1      0.21720    0.21720    0.28280   1.00
Zn1      0.28280    0.28280    0.28280   1.00
O2       0.27350    0.22650    0.16180   1.00
O2       0.27350    0.16180    0.22650   1.00
O2       0.33820    0.22650    0.22650   1.00
O2       0.22650    0.27350    0.16180   1.00
O2       0.16180    0.27350    0.22650   1.00
O2       0.22650    0.33820    0.22650   1.00
O2       0.22650    0.16180    0.27350   1.00
O2       0.16180    0.22650    0.27350   1.00
O2       0.22650    0.22650    0.33820   1.00
O2       0.33820    0.27350    0.27350   1.00
O2       0.27350    0.33820    0.27350   1.00
O2       0.27350    0.27350    0.33820   1.00
C1       0.25000    0.25000    0.14480   1.00
C1       0.25000    0.14480    0.25000   1.00
C1       0.35520    0.25000    0.25000   1.00
C1       0.14480    0.25000    0.25000   1.00
C1       0.25000    0.35520    0.25000   1.00
C1       0.25000    0.25000    0.35520   1.00
O1       0.75000    0.75000    0.25000   1.00
Zn1      0.78280    0.71720    0.21720   1.00
Zn1      0.71720    0.78280    0.21720   1.00
Zn1      0.71720    0.71720    0.28280   1.00
Zn1      0.78280    0.78280    0.28280   1.00
O2       0.77350    0.72650    0.16180   1.00
O2       0.77350    0.66180    0.22650   1.00
O2       0.83820    0.72650    0.22650   1.00
O2       0.72650    0.77350    0.16180   1.00
O2       0.66180    0.77350    0.22650   1.00
O2       0.72650    0.83820    0.22650   1.00
O2       0.72650    0.66180    0.27350   1.00
O2       0.66180    0.72650    0.27350   1.00
O2       0.72650    0.72650    0.33820   1.00
O2       0.83820    0.77350    0.27350   1.00
O2       0.77350    0.83820    0.27350   1.00
O2       0.77350    0.77350    0.33820   1.00
C1       0.75000    0.75000    0.14480   1.00
C1       0.75000    0.64480    0.25000   1.00
C1       0.85520    0.75000    0.25000   1.00
C1       0.64480    0.75000    0.25000   1.00
C1       0.75000    0.85520    0.25000   1.00
C1       0.75000    0.75000    0.35520   1.00
O1       0.75000    0.25000    0.75000   1.00
Zn1      0.78280    0.21720    0.71720   1.00
Zn1      0.71720    0.28280    0.71720   1.00
Zn1      0.71720    0.21720    0.78280   1.00
Zn1      0.78280    0.28280    0.78280   1.00
O2       0.77350    0.22650    0.66180   1.00
O2       0.77350    0.16180    0.72650   1.00
O2       0.83820    0.22650    0.72650   1.00
O2       0.72650    0.27350    0.66180   1.00
O2       0.66180    0.27350    0.72650   1.00
O2       0.72650    0.33820    0.72650   1.00
O2       0.72650    0.16180    0.77350   1.00
O2       0.66180    0.22650    0.77350   1.00
O2       0.72650    0.22650    0.83820   1.00
O2       0.83820    0.27350    0.77350   1.00
O2       0.77350    0.33820    0.77350   1.00
O2       0.77350    0.27350    0.83820   1.00
C1       0.75000    0.25000    0.64480   1.00
C1       0.75000    0.14480    0.75000   1.00
C1       0.85520    0.25000    0.75000   1.00
C1       0.64480    0.25000    0.75000   1.00
C1       0.75000    0.35520    0.75000   1.00
C1       0.75000    0.25000    0.85520   1.00
O1       0.25000    0.75000    0.75000   1.00
Zn1      0.28280    0.71720    0.71720   1.00
Zn1      0.21720    0.78280    0.71720   1.00
Zn1      0.21720    0.71720    0.78280   1.00
Zn1      0.28280    0.78280    0.78280   1.00
O2       0.27350    0.72650    0.66180   1.00
O2       0.27350    0.66180    0.72650   1.00
O2       0.33820    0.72650    0.72650   1.00
O2       0.22650    0.77350    0.66180   1.00
O2       0.16180    0.77350    0.72650   1.00
O2       0.22650    0.83820    0.72650   1.00
O2       0.22650    0.66180    0.77350   1.00
O2       0.16180    0.72650    0.77350   1.00
O2       0.22650    0.72650    0.83820   1.00
O2       0.33820    0.77350    0.77350   1.00
O2       0.27350    0.83820    0.77350   1.00
O2       0.27350    0.77350    0.83820   1.00
C1       0.25000    0.75000    0.64480   1.00
C1       0.25000    0.64480    0.75000   1.00
C1       0.35520    0.75000    0.75000   1.00
C1       0.14480    0.75000    0.75000   1.00
C1       0.25000    0.85520    0.75000   1.00
C1       0.25000    0.75000    0.85520   1.00
O1       1.00000    1.00000    1.00000   1.00
Zn1      0.96720    1.03280    1.03280   1.00
Zn1      1.03280    0.96720    1.03280   1.00
Zn1      1.03280    1.03280    0.96720   1.00
Zn1      0.96720    0.96720    0.96720   1.00
O2       0.97650    1.02350    1.08820   1.00
O2       0.97650    1.08820    1.02350   1.00
O2       0.91180    1.02350    1.02350   1.00
O2       1.02350    0.97650    1.08820   1.00
O2       1.08820    0.97650    1.02350   1.00
O2       1.02350    0.91180    1.02350   1.00
O2       1.02350    1.08820    0.97650   1.00
O2       1.08820    1.02350    0.97650   1.00
O2       1.02350    1.02350    0.91180   1.00
O2       0.91180    0.97650    0.97650   1.00
O2       0.97650    0.91180    0.97650   1.00
O2       0.97650    0.97650    0.91180   1.00
C1       1.00000    1.00000    1.10520   1.00
C1       1.00000    1.10520    1.00000   1.00
C1       0.89480    1.00000    1.00000   1.00
C1       1.10520    1.00000    1.00000   1.00
C1       1.00000    0.89480    1.00000   1.00
C1       1.00000    1.00000    0.89480   1.00
O1       0.50000    0.50000    1.00000   1.00
Zn1      0.46720    0.53280    1.03280   1.00
Zn1      0.53280    0.46720    1.03280   1.00
Zn1      0.53280    0.53280    0.96720   1.00
Zn1      0.46720    0.46720    0.96720   1.00
O2       0.47650    0.52350    1.08820   1.00
O2       0.47650    0.58820    1.02350   1.00
O2       0.41180    0.52350    1.02350   1.00
O2       0.52350    0.47650    1.08820   1.00
O2       0.58820    0.47650    1.02350   1.00
O2       0.52350    0.41180    1.02350   1.00
O2       0.52350    0.58820    0.97650   1.00
O2       0.58820    0.52350    0.97650   1.00
O2       0.52350    0.52350    0.91180   1.00
O2       0.41180    0.47650    0.97650   1.00
O2       0.47650    0.41180    0.97650   1.00
O2       0.47650    0.47650    0.91180   1.00
C1       0.50000    0.50000    1.10520   1.00
C1       0.50000    0.60520    1.00000   1.00
C1       0.39480    0.50000    1.00000   1.00
C1       0.60520    0.50000    1.00000   1.00
C1       0.50000    0.39480    1.00000   1.00
C1       0.50000    0.50000    0.89480   1.00
O1       0.50000    1.00000    0.50000   1.00
Zn1      0.46720    1.03280    0.53280   1.00
Zn1      0.53280    0.96720    0.53280   1.00
Zn1      0.53280    1.03280    0.46720   1.00
Zn1      0.46720    0.96720    0.46720   1.00
O2       0.47650    1.02350    0.58820   1.00
O2       0.47650    1.08820    0.52350   1.00
O2       0.41180    1.02350    0.52350   1.00
O2       0.52350    0.97650    0.58820   1.00
O2       0.58820    0.97650    0.52350   1.00
O2       0.52350    0.91180    0.52350   1.00
O2       0.52350    1.08820    0.47650   1.00
O2       0.58820    1.02350    0.47650   1.00
O2       0.52350    1.02350    0.41180   1.00
O2       0.41180    0.97650    0.47650   1.00
O2       0.47650    0.91180    0.47650   1.00
O2       0.47650    0.97650    0.41180   1.00
C1       0.50000    1.00000    0.60520   1.00
C1       0.50000    1.10520    0.50000   1.00
C1       0.39480    1.00000    0.50000   1.00
C1       0.60520    1.00000    0.50000   1.00
C1       0.50000    0.89480    0.50000   1.00
C1       0.50000    1.00000    0.39480   1.00
O1       1.00000    0.50000    0.50000   1.00
Zn1      0.96720    0.53280    0.53280   1.00
Zn1      1.03280    0.46720    0.53280   1.00
Zn1      1.03280    0.53280    0.46720   1.00
Zn1      0.96720    0.46720    0.46720   1.00
O2       0.97650    0.52350    0.58820   1.00
O2       0.97650    0.58820    0.52350   1.00
O2       0.91180    0.52350    0.52350   1.00
O2       1.02350    0.47650    0.58820   1.00
O2       1.08820    0.47650    0.52350   1.00
O2       1.02350    0.41180    0.52350   1.00
O2       1.02350    0.58820    0.47650   1.00
O2       1.08820    0.52350    0.47650   1.00
O2       1.02350    0.52350    0.41180   1.00
O2       0.91180    0.47650    0.47650   1.00
O2       0.97650    0.41180    0.47650   1.00
O2       0.97650    0.47650    0.41180   1.00
C1       1.00000    0.50000    0.60520   1.00
C1       1.00000    0.60520    0.50000   1.00
C1       0.89480    0.50000    0.50000   1.00
C1       1.10520    0.50000    0.50000   1.00
C1       1.00000    0.39480    0.50000   1.00
C1       1.00000    0.50000    0.39480   1.00
O1       0.50000    0.50000    0.50000   1.00
Zn1      0.53280    0.46720    0.46720   1.00
Zn1      0.46720    0.53280    0.46720   1.00
Zn1      0.46720    0.46720    0.53280   1.00
Zn1      0.53280    0.53280    0.53280   1.00
O2       0.52350    0.47650    0.41180   1.00
O2       0.52350    0.41180    0.47650   1.00
O2       0.58820    0.47650    0.47650   1.00
O2       0.47650    0.52350    0.41180   1.00
O2       0.41180    0.52350    0.47650   1.00
O2       0.47650    0.58820    0.47650   1.00
O2       0.47650    0.41180    0.52350   1.00
O2       0.41180    0.47650    0.52350   1.00
O2       0.47650    0.47650    0.58820   1.00
O2       0.58820    0.52350    0.52350   1.00
O2       0.52350    0.58820    0.52350   1.00
O2       0.52350    0.52350    0.58820   1.00
C1       0.50000    0.50000    0.39480   1.00
C1       0.50000    0.39480    0.50000   1.00
C1       0.60520    0.50000    0.50000   1.00
C1       0.39480    0.50000    0.50000   1.00
C1       0.50000    0.60520    0.50000   1.00
C1       0.50000    0.50000    0.60520   1.00
O1       1.00000    1.00000    0.50000   1.00
Zn1      1.03280    0.96720    0.46720   1.00
Zn1      0.96720    1.03280    0.46720   1.00
Zn1      0.96720    0.96720    0.53280   1.00
Zn1      1.03280    1.03280    0.53280   1.00
O2       1.02350    0.97650    0.41180   1.00
O2       1.02350    0.91180    0.47650   1.00
O2       1.08820    0.97650    0.47650   1.00
O2       0.97650    1.02350    0.41180   1.00
O2       0.91180    1.02350    0.47650   1.00
O2       0.97650    1.08820    0.47650   1.00
O2       0.97650    0.91180    0.52350   1.00
O2       0.91180    0.97650    0.52350   1.00
O2       0.97650    0.97650    0.58820   1.00
O2       1.08820    1.02350    0.52350   1.00
O2       1.02350    1.08820    0.52350   1.00
O2       1.02350    1.02350    0.58820   1.00
C1       1.00000    1.00000    0.39480   1.00
C1       1.00000    0.89480    0.50000   1.00
C1       1.10520    1.00000    0.50000   1.00
C1       0.89480    1.00000    0.50000   1.00
C1       1.00000    1.10520    0.50000   1.00
C1       1.00000    1.00000    0.60520   1.00
O1       1.00000    0.50000    1.00000   1.00
Zn1      1.03280    0.46720    0.96720   1.00
Zn1      0.96720    0.53280    0.96720   1.00
Zn1      0.96720    0.46720    1.03280   1.00
Zn1      1.03280    0.53280    1.03280   1.00
O2       1.02350    0.47650    0.91180   1.00
O2       1.02350    0.41180    0.97650   1.00
O2       1.08820    0.47650    0.97650   1.00
O2       0.97650    0.52350    0.91180   1.00
O2       0.91180    0.52350    0.97650   1.00
O2       0.97650    0.58820    0.97650   1.00
O2       0.97650    0.41180    1.02350   1.00
O2       0.91180    0.47650    1.02350   1.00
O2       0.97650    0.47650    1.08820   1.00
O2       1.08820    0.52350    1.02350   1.00
O2       1.02350    0.58820    1.02350   1.00
O2       1.02350    0.52350    1.08820   1.00
C1       1.00000    0.50000    0.89480   1.00
C1       1.00000    0.39480    1.00000   1.00
C1       1.10520    0.50000    1.00000   1.00
C1       0.89480    0.50000    1.00000   1.00
C1       1.00000    0.60520    1.00000   1.00
C1       1.00000    0.50000    1.10520   1.00
O1       0.50000    1.00000    1.00000   1.00
Zn1      0.53280    0.96720    0.96720   1.00
Zn1      0.46720    1.03280    0.96720   1.00
Zn1      0.46720    0.96720    1.03280   1.00
Zn1      0.53280    1.03280    1.03280   1.00
O2       0.52350    0.97650    0.91180   1.00
O2       0.52350    0.91180    0.97650   1.00
O2       0.58820    0.97650    0.97650   1.00
O2       0.47650    1.02350    0.91180   1.00
O2       0.41180    1.02350    0.97650   1.00
O2       0.47650    1.08820    0.97650   1.00
O2       0.47650    0.91180    1.02350   1.00
O2       0.41180    0.97650    1.02350   1.00
O2       0.47650    0.97650    1.08820   1.00
O2       0.58820    1.02350    1.02350   1.00
O2       0.52350    1.08820    1.02350   1.00
O2       0.52350    1.02350    1.08820   1.00
C1       0.50000    1.00000    0.89480   1.00
C1       0.50000    0.89480    1.00000   1.00
C1       0.60520    1.00000    1.00000   1.00
C1       0.39480    1.00000    1.00000   1.00
C1       0.50000    1.10520    1.00000   1.00
C1       0.50000    1.00000    1.10520   1.00
C2       0.75005    0.75299    0.89757   1.00
C3a      0.76810    0.78288    0.91884   1.00
H1       0.78207    0.80689    0.90369   1.00
C3a      0.73198    0.72191    0.91704   1.00
H1       0.71804    0.69882    0.90051   1.00
C3b      0.76828    0.78203    0.95938   1.00
C5       0.78795    0.81464    0.98144   1.00
H2       0.81179    0.80277    0.99984   1.00
H2       0.80075    0.83682    0.96161   1.00
H2       0.76655    0.82955    1.00060   1.00
C3b      0.73176    0.72039    0.95756   1.00
C5       0.71207    0.68655    0.97767   1.00
H2       0.68821    0.69733    0.99670   1.00
H2       0.69929    0.66556    0.95655   1.00
H2       0.73345    0.67055    0.99594   1.00
C4       0.75001    0.75062    0.97873   1.00
C4       0.74999    0.74938    1.02127   1.00
C3b      0.78081    0.73054    1.04101   1.00
C5       0.81406    0.71148    1.01937   1.00
H2       0.82954    0.73340    1.00129   1.00
H2       0.83564    0.69809    1.03949   1.00
H2       0.80275    0.68819    0.99995   1.00
C3b      0.71914    0.76704    1.04204   1.00
C5       0.68592    0.78733    1.02152   1.00
H2       0.67046    0.76649    1.00217   1.00
H2       0.66431    0.79952    1.04235   1.00
H2       0.69725    0.81171    1.00350   1.00
C3a      0.78045    0.72955    1.08155   1.00
H1       0.80401    0.71514    1.09700   1.00
C3a      0.71946    0.76566    1.08257   1.00
H1       0.69589    0.77914    1.09881   1.00
C2       0.74995    0.74701    1.10243   1.00
C2       0.75299    0.89757    0.75005   1.00
C3a      0.78288    0.91884    0.76810   1.00
H1       0.80689    0.90369    0.78207   1.00
C3a      0.72191    0.91704    0.73198   1.00
H1       0.69882    0.90051    0.71804   1.00
C3b      0.78203    0.95938    0.76828   1.00
C5       0.81464    0.98144    0.78795   1.00
H2       0.80277    0.99984    0.81179   1.00
H2       0.83682    0.96161    0.80075   1.00
H2       0.82955    1.00060    0.76655   1.00
C3b      0.72039    0.95756    0.73176   1.00
C5       0.68655    0.97767    0.71207   1.00
H2       0.69733    0.99670    0.68821   1.00
H2       0.66556    0.95655    0.69929   1.00
H2       0.67055    0.99594    0.73345   1.00
C4       0.75062    0.97873    0.75001   1.00
C4       0.74938    1.02127    0.74999   1.00
C3b      0.73054    1.04101    0.78081   1.00
C5       0.71148    1.01937    0.81406   1.00
H2       0.73340    1.00129    0.82954   1.00
H2       0.69809    1.03949    0.83564   1.00
H2       0.68819    0.99995    0.80275   1.00
C3b      0.76704    1.04204    0.71914   1.00
C5       0.78733    1.02152    0.68592   1.00
H2       0.76649    1.00217    0.67046   1.00
H2       0.79952    1.04235    0.66431   1.00
H2       0.81171    1.00350    0.69725   1.00
C3a      0.72955    1.08155    0.78045   1.00
H1       0.71514    1.09700    0.80401   1.00
C3a      0.76566    1.08257    0.71946   1.00
H1       0.77914    1.09881    0.69589   1.00
C2       0.74701    1.10243    0.74995   1.00
C2       0.60243    0.75005    0.74701   1.00
C3a      0.58116    0.76810    0.71712   1.00
H1       0.59631    0.78207    0.69311   1.00
C3a      0.58296    0.73198    0.77809   1.00
H1       0.59949    0.71804    0.80118   1.00
C3b      0.54062    0.76828    0.71797   1.00
C5       0.51856    0.78795    0.68536   1.00
H2       0.50016    0.81179    0.69723   1.00
H2       0.53839    0.80075    0.66318   1.00
H2       0.49940    0.76655    0.67045   1.00
C3b      0.54244    0.73176    0.77961   1.00
C5       0.52233    0.71207    0.81345   1.00
H2       0.50330    0.68821    0.80267   1.00
H2       0.54345    0.69929    0.83444   1.00
H2       0.50406    0.73345    0.82945   1.00
C4       0.52127    0.75001    0.74938   1.00
C4       0.47873    0.74999    0.75062   1.00
C3b      0.45899    0.78081    0.76946   1.00
C5       0.48063    0.81406    0.78852   1.00
H2       0.49871    0.82954    0.76660   1.00
H2       0.46051    0.83564    0.80191   1.00
H2       0.50005    0.80275    0.81181   1.00
C3b      0.45796    0.71914    0.73296   1.00
C5       0.47848    0.68592    0.71267   1.00
H2       0.49783    0.67046    0.73351   1.00
H2       0.45765    0.66431    0.70048   1.00
H2       0.49650    0.69725    0.68829   1.00
C3a      0.41845    0.78045    0.77045   1.00
H1       0.40300    0.80401    0.78486   1.00
C3a      0.41743    0.71946    0.73434   1.00
H1       0.40119    0.69589    0.72086   1.00
C2       0.39757    0.74995    0.75299   1.00
C2       0.89757    0.75005    0.75299   1.00
C3a      0.91884    0.76810    0.78288   1.00
H1       0.90369    0.78207    0.80689   1.00
C3a      0.91704    0.73198    0.72191   1.00
H1       0.90051    0.71804    0.69882   1.00
C3b      0.95938    0.76828    0.78203   1.00
C5       0.98144    0.78795    0.81464   1.00
H2       0.99984    0.81179    0.80277   1.00
H2       0.96161    0.80075    0.83682   1.00
H2       1.00060    0.76655    0.82955   1.00
C3b      0.95756    0.73176    0.72039   1.00
C5       0.97767    0.71207    0.68655   1.00
H2       0.99670    0.68821    0.69733   1.00
H2       0.95655    0.69929    0.66556   1.00
H2       0.99594    0.73345    0.67055   1.00
C4       0.97873    0.75001    0.75062   1.00
C4       1.02127    0.74999    0.74938   1.00
C3b      1.04101    0.78081    0.73054   1.00
C5       1.01937    0.81406    0.71148   1.00
H2       1.00129    0.82954    0.73340   1.00
H2       1.03949    0.83564    0.69809   1.00
H2       0.99995    0.80275    0.68819   1.00
C3b      1.04204    0.71914    0.76704   1.00
C5       1.02152    0.68592    0.78733   1.00
H2       1.00217    0.67046    0.76649   1.00
H2       1.04235    0.66431    0.79952   1.00
H2       1.00350    0.69725    0.81171   1.00
C3a      1.08155    0.78045    0.72955   1.00
H1       1.09700    0.80401    0.71514   1.00
C3a      1.08257    0.71946    0.76566   1.00
H1       1.09881    0.69589    0.77914   1.00
C2       1.10243    0.74995    0.74701   1.00
C2       0.74701    0.60243    0.75005   1.00
C3a      0.71712    0.58116    0.76810   1.00
H1       0.69311    0.59631    0.78207   1.00
C3a      0.77809    0.58296    0.73198   1.00
H1       0.80118    0.59949    0.71804   1.00
C3b      0.71797    0.54062    0.76828   1.00
C5       0.68536    0.51856    0.78795   1.00
H2       0.69723    0.50016    0.81179   1.00
H2       0.66318    0.53839    0.80075   1.00
H2       0.67045    0.49940    0.76655   1.00
C3b      0.77961    0.54244    0.73176   1.00
C5       0.81345    0.52233    0.71207   1.00
H2       0.80267    0.50330    0.68821   1.00
H2       0.83444    0.54345    0.69929   1.00
H2       0.82945    0.50406    0.73345   1.00
C4       0.74938    0.52127    0.75001   1.00
C4       0.75062    0.47873    0.74999   1.00
C3b      0.76946    0.45899    0.78081   1.00
C5       0.78852    0.48063    0.81406   1.00
H2       0.76660    0.49871    0.82954   1.00
H2       0.80191    0.46051    0.83564   1.00
H2       0.81181    0.50005    0.80275   1.00
C3b      0.73296    0.45796    0.71914   1.00
C5       0.71267    0.47848    0.68592   1.00
H2       0.73351    0.49783    0.67046   1.00
H2       0.70048    0.45765    0.66431   1.00
H2       0.68829    0.49650    0.69725   1.00
C3a      0.77045    0.41845    0.78045   1.00
H1       0.78486    0.40300    0.80401   1.00
C3a      0.73434    0.41743    0.71946   1.00
H1       0.72086    0.40119    0.69589   1.00
C2       0.75299    0.39757    0.74995   1.00
C2       0.75005    0.74701    0.60243   1.00
C3a      0.76810    0.71712    0.58116   1.00
H1       0.78207    0.69311    0.59631   1.00
C3a      0.73198    0.77809    0.58296   1.00
H1       0.71804    0.80118    0.59949   1.00
C3b      0.76828    0.71797    0.54062   1.00
C5       0.78795    0.68536    0.51856   1.00
H2       0.81179    0.69723    0.50016   1.00
H2       0.80075    0.66318    0.53839   1.00
H2       0.76655    0.67045    0.49940   1.00
C3b      0.73176    0.77961    0.54244   1.00
C5       0.71207    0.81345    0.52233   1.00
H2       0.68821    0.80267    0.50330   1.00
H2       0.69929    0.83444    0.54345   1.00
H2       0.73345    0.82945    0.50406   1.00
C4       0.75001    0.74938    0.52127   1.00
C4       0.74999    0.75062    0.47873   1.00
C3b      0.78081    0.76946    0.45899   1.00
C5       0.81406    0.78852    0.48063   1.00
H2       0.82954    0.76660    0.49871   1.00
H2       0.83564    0.80191    0.46051   1.00
H2       0.80275    0.81181    0.50005   1.00
C3b      0.71914    0.73296    0.45796   1.00
C5       0.68592    0.71267    0.47848   1.00
H2       0.67046    0.73351    0.49783   1.00
H2       0.66431    0.70048    0.45765   1.00
H2       0.69725    0.68829    0.49650   1.00
C3a      0.78045    0.77045    0.41845   1.00
H1       0.80401    0.78486    0.40300   1.00
C3a      0.71946    0.73434    0.41743   1.00
H1       0.69589    0.72086    0.40119   1.00
C2       0.74995    0.75299    0.39757   1.00
C2       0.25005    0.25299    0.89757   1.00
C3a      0.26810    0.28288    0.91884   1.00
H1       0.28207    0.30689    0.90369   1.00
C3a      0.23198    0.22191    0.91704   1.00
H1       0.21804    0.19882    0.90051   1.00
C3b      0.26828    0.28203    0.95938   1.00
C5       0.28795    0.31464    0.98144   1.00
H2       0.31179    0.30277    0.99984   1.00
H2       0.30075    0.33682    0.96161   1.00
H2       0.26655    0.32955    1.00060   1.00
C3b      0.23176    0.22039    0.95756   1.00
C5       0.21207    0.18655    0.97767   1.00
H2       0.18821    0.19733    0.99670   1.00
H2       0.19929    0.16556    0.95655   1.00
H2       0.23345    0.17055    0.99594   1.00
C4       0.25001    0.25062    0.97873   1.00
C4       0.24999    0.24938    1.02127   1.00
C3b      0.28081    0.23054    1.04101   1.00
C5       0.31406    0.21148    1.01937   1.00
H2       0.32954    0.23340    1.00129   1.00
H2       0.33564    0.19809    1.03949   1.00
H2       0.30275    0.18819    0.99995   1.00
C3b      0.21914    0.26704    1.04204   1.00
C5       0.18592    0.28733    1.02152   1.00
H2       0.17046    0.26649    1.00217   1.00
H2       0.16431    0.29952    1.04235   1.00
H2       0.19725    0.31171    1.00350   1.00
C3a      0.28045    0.22955    1.08155   1.00
H1       0.30401    0.21514    1.09700   1.00
C3a      0.21946    0.26566    1.08257   1.00
H1       0.19589    0.27914    1.09881   1.00
C2       0.24995    0.24701    1.10243   1.00
C2       0.25299    0.39757    0.75005   1.00
C3a      0.28288    0.41884    0.76810   1.00
H1       0.30689    0.40369    0.78207   1.00
C3a      0.22191    0.41704    0.73198   1.00
H1       0.19882    0.40051    0.71804   1.00
C3b      0.28203    0.45938    0.76828   1.00
C5       0.31464    0.48144    0.78795   1.00
H2       0.30277    0.49984    0.81179   1.00
H2       0.33682    0.46161    0.80075   1.00
H2       0.32955    0.50060    0.76655   1.00
C3b      0.22039    0.45756    0.73176   1.00
C5       0.18655    0.47767    0.71207   1.00
H2       0.19733    0.49670    0.68821   1.00
H2       0.16556    0.45655    0.69929   1.00
H2       0.17055    0.49594    0.73345   1.00
C4       0.25062    0.47873    0.75001   1.00
C4       0.24938    0.52127    0.74999   1.00
C3b      0.23054    0.54101    0.78081   1.00
C5       0.21148    0.51937    0.81406   1.00
H2       0.23340    0.50129    0.82954   1.00
H2       0.19809    0.53949    0.83564   1.00
H2       0.18819    0.49995    0.80275   1.00
C3b      0.26704    0.54204    0.71914   1.00
C5       0.28733    0.52152    0.68592   1.00
H2       0.26649    0.50217    0.67046   1.00
H2       0.29952    0.54235    0.66431   1.00
H2       0.31171    0.50350    0.69725   1.00
C3a      0.22955    0.58155    0.78045   1.00
H1       0.21514    0.59700    0.80401   1.00
C3a      0.26566    0.58257    0.71946   1.00
H1       0.27914    0.59881    0.69589   1.00
C2       0.24701    0.60243    0.74995   1.00
C2       0.10243    0.25005    0.74701   1.00
C3a      0.08116    0.26810    0.71712   1.00
H1       0.09631    0.28207    0.69311   1.00
C3a      0.08296    0.23198    0.77809   1.00
H1       0.09949    0.21804    0.80118   1.00
C3b      0.04062    0.26828    0.71797   1.00
C5       0.01856    0.28795    0.68536   1.00
H2       0.00016    0.31179    0.69723   1.00
H2       0.03839    0.30075    0.66318   1.00
H2       -0.00060   0.26655    0.67045   1.00
C3b      0.04244    0.23176    0.77961   1.00
C5       0.02233    0.21207    0.81345   1.00
H2       0.00330    0.18821    0.80267   1.00
H2       0.04345    0.19929    0.83444   1.00
H2       0.00406    0.23345    0.82945   1.00
C4       0.02127    0.25001    0.74938   1.00
C4       -0.02127   0.24999    0.75062   1.00
C3b      -0.04101   0.28081    0.76946   1.00
C5       -0.01937   0.31406    0.78852   1.00
H2       -0.00129   0.32954    0.76660   1.00
H2       -0.03949   0.33564    0.80191   1.00
H2       0.00005    0.30275    0.81181   1.00
C3b      -0.04204   0.21914    0.73296   1.00
C5       -0.02152   0.18592    0.71267   1.00
H2       -0.00217   0.17046    0.73351   1.00
H2       -0.04235   0.16431    0.70048   1.00
H2       -0.00350   0.19725    0.68829   1.00
C3a      -0.08155   0.28045    0.77045   1.00
H1       -0.09700   0.30401    0.78486   1.00
C3a      -0.08257   0.21946    0.73434   1.00
H1       -0.09881   0.19589    0.72086   1.00
C2       -0.10243   0.24995    0.75299   1.00
C2       0.39757    0.25005    0.75299   1.00
C3a      0.41884    0.26810    0.78288   1.00
H1       0.40369    0.28207    0.80689   1.00
C3a      0.41704    0.23198    0.72191   1.00
H1       0.40051    0.21804    0.69882   1.00
C3b      0.45938    0.26828    0.78203   1.00
C5       0.48144    0.28795    0.81464   1.00
H2       0.49984    0.31179    0.80277   1.00
H2       0.46161    0.30075    0.83682   1.00
H2       0.50060    0.26655    0.82955   1.00
C3b      0.45756    0.23176    0.72039   1.00
C5       0.47767    0.21207    0.68655   1.00
H2       0.49670    0.18821    0.69733   1.00
H2       0.45655    0.19929    0.66556   1.00
H2       0.49594    0.23345    0.67055   1.00
C4       0.47873    0.25001    0.75062   1.00
C4       0.52127    0.24999    0.74938   1.00
C3b      0.54101    0.28081    0.73054   1.00
C5       0.51937    0.31406    0.71148   1.00
H2       0.50129    0.32954    0.73340   1.00
H2       0.53949    0.33564    0.69809   1.00
H2       0.49995    0.30275    0.68819   1.00
C3b      0.54204    0.21914    0.76704   1.00
C5       0.52152    0.18592    0.78733   1.00
H2       0.50217    0.17046    0.76649   1.00
H2       0.54235    0.16431    0.79952   1.00
H2       0.50350    0.19725    0.81171   1.00
C3a      0.58155    0.28045    0.72955   1.00
H1       0.59700    0.30401    0.71514   1.00
C3a      0.58257    0.21946    0.76566   1.00
H1       0.59881    0.19589    0.77914   1.00
C2       0.60243    0.24995    0.74701   1.00
C2       0.24701    0.10243    0.75005   1.00
C3a      0.21712    0.08116    0.76810   1.00
H1       0.19311    0.09631    0.78207   1.00
C3a      0.27809    0.08296    0.73198   1.00
H1       0.30118    0.09949    0.71804   1.00
C3b      0.21797    0.04062    0.76828   1.00
C5       0.18536    0.01856    0.78795   1.00
H2       0.19723    0.00016    0.81179   1.00
H2       0.16318    0.03839    0.80075   1.00
H2       0.17045    -0.00060   0.76655   1.00
C3b      0.27961    0.04244    0.73176   1.00
C5       0.31345    0.02233    0.71207   1.00
H2       0.30267    0.00330    0.68821   1.00
H2       0.33444    0.04345    0.69929   1.00
H2       0.32945    0.00406    0.73345   1.00
C4       0.24938    0.02127    0.75001   1.00
C4       0.25062    -0.02127   0.74999   1.00
C3b      0.26946    -0.04101   0.78081   1.00
C5       0.28852    -0.01937   0.81406   1.00
H2       0.26660    -0.00129   0.82954   1.00
H2       0.30191    -0.03949   0.83564   1.00
H2       0.31181    0.00005    0.80275   1.00
C3b      0.23296    -0.04204   0.71914   1.00
C5       0.21267    -0.02152   0.68592   1.00
H2       0.23351    -0.00217   0.67046   1.00
H2       0.20048    -0.04235   0.66431   1.00
H2       0.18829    -0.00350   0.69725   1.00
C3a      0.27045    -0.08155   0.78045   1.00
H1       0.28486    -0.09700   0.80401   1.00
C3a      0.23434    -0.08257   0.71946   1.00
H1       0.22086    -0.09881   0.69589   1.00
C2       0.25299    -0.10243   0.74995   1.00
C2       0.25005    0.24701    0.60243   1.00
C3a      0.26810    0.21712    0.58116   1.00
H1       0.28207    0.19311    0.59631   1.00
C3a      0.23198    0.27809    0.58296   1.00
H1       0.21804    0.30118    0.59949   1.00
C3b      0.26828    0.21797    0.54062   1.00
C5       0.28795    0.18536    0.51856   1.00
H2       0.31179    0.19723    0.50016   1.00
H2       0.30075    0.16318    0.53839   1.00
H2       0.26655    0.17045    0.49940   1.00
C3b      0.23176    0.27961    0.54244   1.00
C5       0.21207    0.31345    0.52233   1.00
H2       0.18821    0.30267    0.50330   1.00
H2       0.19929    0.33444    0.54345   1.00
H2       0.23345    0.32945    0.50406   1.00
C4       0.25001    0.24938    0.52127   1.00
C4       0.24999    0.25062    0.47873   1.00
C3b      0.28081    0.26946    0.45899   1.00
C5       0.31406    0.28852    0.48063   1.00
H2       0.32954    0.26660    0.49871   1.00
H2       0.33564    0.30191    0.46051   1.00
H2       0.30275    0.31181    0.50005   1.00
C3b      0.21914    0.23296    0.45796   1.00
C5       0.18592    0.21267    0.47848   1.00
H2       0.17046    0.23351    0.49783   1.00
H2       0.16431    0.20048    0.45765   1.00
H2       0.19725    0.18829    0.49650   1.00
C3a      0.28045    0.27045    0.41845   1.00
H1       0.30401    0.28486    0.40300   1.00
C3a      0.21946    0.23434    0.41743   1.00
H1       0.19589    0.22086    0.40119   1.00
C2       0.24995    0.25299    0.39757   1.00
C2       0.25005    0.75299    0.39757   1.00
C3a      0.26810    0.78288    0.41884   1.00
H1       0.28207    0.80689    0.40369   1.00
C3a      0.23198    0.72191    0.41704   1.00
H1       0.21804    0.69882    0.40051   1.00
C3b      0.26828    0.78203    0.45938   1.00
C5       0.28795    0.81464    0.48144   1.00
H2       0.31179    0.80277    0.49984   1.00
H2       0.30075    0.83682    0.46161   1.00
H2       0.26655    0.82955    0.50060   1.00
C3b      0.23176    0.72039    0.45756   1.00
C5       0.21207    0.68655    0.47767   1.00
H2       0.18821    0.69733    0.49670   1.00
H2       0.19929    0.66556    0.45655   1.00
H2       0.23345    0.67055    0.49594   1.00
C4       0.25001    0.75062    0.47873   1.00
C4       0.24999    0.74938    0.52127   1.00
C3b      0.28081    0.73054    0.54101   1.00
C5       0.31406    0.71148    0.51937   1.00
H2       0.32954    0.73340    0.50129   1.00
H2       0.33564    0.69809    0.53949   1.00
H2       0.30275    0.68819    0.49995   1.00
C3b      0.21914    0.76704    0.54204   1.00
C5       0.18592    0.78733    0.52152   1.00
H2       0.17046    0.76649    0.50217   1.00
H2       0.16431    0.79952    0.54235   1.00
H2       0.19725    0.81171    0.50350   1.00
C3a      0.28045    0.72955    0.58155   1.00
H1       0.30401    0.71514    0.59700   1.00
C3a      0.21946    0.76566    0.58257   1.00
H1       0.19589    0.77914    0.59881   1.00
C2       0.24995    0.74701    0.60243   1.00
C2       0.25299    0.89757    0.25005   1.00
C3a      0.28288    0.91884    0.26810   1.00
H1       0.30689    0.90369    0.28207   1.00
C3a      0.22191    0.91704    0.23198   1.00
H1       0.19882    0.90051    0.21804   1.00
C3b      0.28203    0.95938    0.26828   1.00
C5       0.31464    0.98144    0.28795   1.00
H2       0.30277    0.99984    0.31179   1.00
H2       0.33682    0.96161    0.30075   1.00
H2       0.32955    1.00060    0.26655   1.00
C3b      0.22039    0.95756    0.23176   1.00
C5       0.18655    0.97767    0.21207   1.00
H2       0.19733    0.99670    0.18821   1.00
H2       0.16556    0.95655    0.19929   1.00
H2       0.17055    0.99594    0.23345   1.00
C4       0.25062    0.97873    0.25001   1.00
C4       0.24938    1.02127    0.24999   1.00
C3b      0.23054    1.04101    0.28081   1.00
C5       0.21148    1.01937    0.31406   1.00
H2       0.23340    1.00129    0.32954   1.00
H2       0.19809    1.03949    0.33564   1.00
H2       0.18819    0.99995    0.30275   1.00
C3b      0.26704    1.04204    0.21914   1.00
C5       0.28733    1.02152    0.18592   1.00
H2       0.26649    1.00217    0.17046   1.00
H2       0.29952    1.04235    0.16431   1.00
H2       0.31171    1.00350    0.19725   1.00
C3a      0.22955    1.08155    0.28045   1.00
H1       0.21514    1.09700    0.30401   1.00
C3a      0.26566    1.08257    0.21946   1.00
H1       0.27914    1.09881    0.19589   1.00
C2       0.24701    1.10243    0.24995   1.00
C2       0.10243    0.75005    0.24701   1.00
C3a      0.08116    0.76810    0.21712   1.00
H1       0.09631    0.78207    0.19311   1.00
C3a      0.08296    0.73198    0.27809   1.00
H1       0.09949    0.71804    0.30118   1.00
C3b      0.04062    0.76828    0.21797   1.00
C5       0.01856    0.78795    0.18536   1.00
H2       0.00016    0.81179    0.19723   1.00
H2       0.03839    0.80075    0.16318   1.00
H2       -0.00060   0.76655    0.17045   1.00
C3b      0.04244    0.73176    0.27961   1.00
C5       0.02233    0.71207    0.31345   1.00
H2       0.00330    0.68821    0.30267   1.00
H2       0.04345    0.69929    0.33444   1.00
H2       0.00406    0.73345    0.32945   1.00
C4       0.02127    0.75001    0.24938   1.00
C4       -0.02127   0.74999    0.25062   1.00
C3b      -0.04101   0.78081    0.26946   1.00
C5       -0.01937   0.81406    0.28852   1.00
H2       -0.00129   0.82954    0.26660   1.00
H2       -0.03949   0.83564    0.30191   1.00
H2       0.00005    0.80275    0.31181   1.00
C3b      -0.04204   0.71914    0.23296   1.00
C5       -0.02152   0.68592    0.21267   1.00
H2       -0.00217   0.67046    0.23351   1.00
H2       -0.04235   0.66431    0.20048   1.00
H2       -0.00350   0.69725    0.18829   1.00
C3a      -0.08155   0.78045    0.27045   1.00
H1       -0.09700   0.80401    0.28486   1.00
C3a      -0.08257   0.71946    0.23434   1.00
H1       -0.09881   0.69589    0.22086   1.00
C2       -0.10243   0.74995    0.25299   1.00
C2       0.39757    0.75005    0.25299   1.00
C3a      0.41884    0.76810    0.28288   1.00
H1       0.40369    0.78207    0.30689   1.00
C3a      0.41704    0.73198    0.22191   1.00
H1       0.40051    0.71804    0.19882   1.00
C3b      0.45938    0.76828    0.28203   1.00
C5       0.48144    0.78795    0.31464   1.00
H2       0.49984    0.81179    0.30277   1.00
H2       0.46161    0.80075    0.33682   1.00
H2       0.50060    0.76655    0.32955   1.00
C3b      0.45756    0.73176    0.22039   1.00
C5       0.47767    0.71207    0.18655   1.00
H2       0.49670    0.68821    0.19733   1.00
H2       0.45655    0.69929    0.16556   1.00
H2       0.49594    0.73345    0.17055   1.00
C4       0.47873    0.75001    0.25062   1.00
C4       0.52127    0.74999    0.24938   1.00
C3b      0.54101    0.78081    0.23054   1.00
C5       0.51937    0.81406    0.21148   1.00
H2       0.50129    0.82954    0.23340   1.00
H2       0.53949    0.83564    0.19809   1.00
H2       0.49995    0.80275    0.18819   1.00
C3b      0.54204    0.71914    0.26704   1.00
C5       0.52152    0.68592    0.28733   1.00
H2       0.50217    0.67046    0.26649   1.00
H2       0.54235    0.66431    0.29952   1.00
H2       0.50350    0.69725    0.31171   1.00
C3a      0.58155    0.78045    0.22955   1.00
H1       0.59700    0.80401    0.21514   1.00
C3a      0.58257    0.71946    0.26566   1.00
H1       0.59881    0.69589    0.27914   1.00
C2       0.60243    0.74995    0.24701   1.00
C2       0.24701    0.60243    0.25005   1.00
C3a      0.21712    0.58116    0.26810   1.00
H1       0.19311    0.59631    0.28207   1.00
C3a      0.27809    0.58296    0.23198   1.00
H1       0.30118    0.59949    0.21804   1.00
C3b      0.21797    0.54062    0.26828   1.00
C5       0.18536    0.51856    0.28795   1.00
H2       0.19723    0.50016    0.31179   1.00
H2       0.16318    0.53839    0.30075   1.00
H2       0.17045    0.49940    0.26655   1.00
C3b      0.27961    0.54244    0.23176   1.00
C5       0.31345    0.52233    0.21207   1.00
H2       0.30267    0.50330    0.18821   1.00
H2       0.33444    0.54345    0.19929   1.00
H2       0.32945    0.50406    0.23345   1.00
C4       0.24938    0.52127    0.25001   1.00
C4       0.25062    0.47873    0.24999   1.00
C3b      0.26946    0.45899    0.28081   1.00
C5       0.28852    0.48063    0.31406   1.00
H2       0.26660    0.49871    0.32954   1.00
H2       0.30191    0.46051    0.33564   1.00
H2       0.31181    0.50005    0.30275   1.00
C3b      0.23296    0.45796    0.21914   1.00
C5       0.21267    0.47848    0.18592   1.00
H2       0.23351    0.49783    0.17046   1.00
H2       0.20048    0.45765    0.16431   1.00
H2       0.18829    0.49650    0.19725   1.00
C3a      0.27045    0.41845    0.28045   1.00
H1       0.28486    0.40300    0.30401   1.00
C3a      0.23434    0.41743    0.21946   1.00
H1       0.22086    0.40119    0.19589   1.00
C2       0.25299    0.39757    0.24995   1.00
C2       0.25005    0.74701    0.10243   1.00
C3a      0.26810    0.71712    0.08116   1.00
H1       0.28207    0.69311    0.09631   1.00
C3a      0.23198    0.77809    0.08296   1.00
H1       0.21804    0.80118    0.09949   1.00
C3b      0.26828    0.71797    0.04062   1.00
C5       0.28795    0.68536    0.01856   1.00
H2       0.31179    0.69723    0.00016   1.00
H2       0.30075    0.66318    0.03839   1.00
H2       0.26655    0.67045    -0.00060   1.00
C3b      0.23176    0.77961    0.04244   1.00
C5       0.21207    0.81345    0.02233   1.00
H2       0.18821    0.80267    0.00330   1.00
H2       0.19929    0.83444    0.04345   1.00
H2       0.23345    0.82945    0.00406   1.00
C4       0.25001    0.74938    0.02127   1.00
C4       0.24999    0.75062    -0.02127   1.00
C3b      0.28081    0.76946    -0.04101   1.00
C5       0.31406    0.78852    -0.01937   1.00
H2       0.32954    0.76660    -0.00129   1.00
H2       0.33564    0.80191    -0.03949   1.00
H2       0.30275    0.81181    0.00005   1.00
C3b      0.21914    0.73296    -0.04204   1.00
C5       0.18592    0.71267    -0.02152   1.00
H2       0.17046    0.73351    -0.00217   1.00
H2       0.16431    0.70048    -0.04235   1.00
H2       0.19725    0.68829    -0.00350   1.00
C3a      0.28045    0.77045    -0.08155   1.00
H1       0.30401    0.78486    -0.09700   1.00
C3a      0.21946    0.73434    -0.08257   1.00
H1       0.19589    0.72086    -0.09881   1.00
C2       0.24995    0.75299    -0.10243   1.00
C2       0.75005    0.25299    0.39757   1.00
C3a      0.76810    0.28288    0.41884   1.00
H1       0.78207    0.30689    0.40369   1.00
C3a      0.73198    0.22191    0.41704   1.00
H1       0.71804    0.19882    0.40051   1.00
C3b      0.76828    0.28203    0.45938   1.00
C5       0.78795    0.31464    0.48144   1.00
H2       0.81179    0.30277    0.49984   1.00
H2       0.80075    0.33682    0.46161   1.00
H2       0.76655    0.32955    0.50060   1.00
C3b      0.73176    0.22039    0.45756   1.00
C5       0.71207    0.18655    0.47767   1.00
H2       0.68821    0.19733    0.49670   1.00
H2       0.69929    0.16556    0.45655   1.00
H2       0.73345    0.17055    0.49594   1.00
C4       0.75001    0.25062    0.47873   1.00
C4       0.74999    0.24938    0.52127   1.00
C3b      0.78081    0.23054    0.54101   1.00
C5       0.81406    0.21148    0.51937   1.00
H2       0.82954    0.23340    0.50129   1.00
H2       0.83564    0.19809    0.53949   1.00
H2       0.80275    0.18819    0.49995   1.00
C3b      0.71914    0.26704    0.54204   1.00
C5       0.68592    0.28733    0.52152   1.00
H2       0.67046    0.26649    0.50217   1.00
H2       0.66431    0.29952    0.54235   1.00
H2       0.69725    0.31171    0.50350   1.00
C3a      0.78045    0.22955    0.58155   1.00
H1       0.80401    0.21514    0.59700   1.00
C3a      0.71946    0.26566    0.58257   1.00
H1       0.69589    0.27914    0.59881   1.00
C2       0.74995    0.24701    0.60243   1.00
C2       0.75299    0.39757    0.25005   1.00
C3a      0.78288    0.41884    0.26810   1.00
H1       0.80689    0.40369    0.28207   1.00
C3a      0.72191    0.41704    0.23198   1.00
H1       0.69882    0.40051    0.21804   1.00
C3b      0.78203    0.45938    0.26828   1.00
C5       0.81464    0.48144    0.28795   1.00
H2       0.80277    0.49984    0.31179   1.00
H2       0.83682    0.46161    0.30075   1.00
H2       0.82955    0.50060    0.26655   1.00
C3b      0.72039    0.45756    0.23176   1.00
C5       0.68655    0.47767    0.21207   1.00
H2       0.69733    0.49670    0.18821   1.00
H2       0.66556    0.45655    0.19929   1.00
H2       0.67055    0.49594    0.23345   1.00
C4       0.75062    0.47873    0.25001   1.00
C4       0.74938    0.52127    0.24999   1.00
C3b      0.73054    0.54101    0.28081   1.00
C5       0.71148    0.51937    0.31406   1.00
H2       0.73340    0.50129    0.32954   1.00
H2       0.69809    0.53949    0.33564   1.00
H2       0.68819    0.49995    0.30275   1.00
C3b      0.76704    0.54204    0.21914   1.00
C5       0.78733    0.52152    0.18592   1.00
H2       0.76649    0.50217    0.17046   1.00
H2       0.79952    0.54235    0.16431   1.00
H2       0.81171    0.50350    0.19725   1.00
C3a      0.72955    0.58155    0.28045   1.00
H1       0.71514    0.59700    0.30401   1.00
C3a      0.76566    0.58257    0.21946   1.00
H1       0.77914    0.59881    0.19589   1.00
C2       0.74701    0.60243    0.24995   1.00
C2       0.60243    0.25005    0.24701   1.00
C3a      0.58116    0.26810    0.21712   1.00
H1       0.59631    0.28207    0.19311   1.00
C3a      0.58296    0.23198    0.27809   1.00
H1       0.59949    0.21804    0.30118   1.00
C3b      0.54062    0.26828    0.21797   1.00
C5       0.51856    0.28795    0.18536   1.00
H2       0.50016    0.31179    0.19723   1.00
H2       0.53839    0.30075    0.16318   1.00
H2       0.49940    0.26655    0.17045   1.00
C3b      0.54244    0.23176    0.27961   1.00
C5       0.52233    0.21207    0.31345   1.00
H2       0.50330    0.18821    0.30267   1.00
H2       0.54345    0.19929    0.33444   1.00
H2       0.50406    0.23345    0.32945   1.00
C4       0.52127    0.25001    0.24938   1.00
C4       0.47873    0.24999    0.25062   1.00
C3b      0.45899    0.28081    0.26946   1.00
C5       0.48063    0.31406    0.28852   1.00
H2       0.49871    0.32954    0.26660   1.00
H2       0.46051    0.33564    0.30191   1.00
H2       0.50005    0.30275    0.31181   1.00
C3b      0.45796    0.21914    0.23296   1.00
C5       0.47848    0.18592    0.21267   1.00
H2       0.49783    0.17046    0.23351   1.00
H2       0.45765    0.16431    0.20048   1.00
H2       0.49650    0.19725    0.18829   1.00
C3a      0.41845    0.28045    0.27045   1.00
H1       0.40300    0.30401    0.28486   1.00
C3a      0.41743    0.21946    0.23434   1.00
H1       0.40119    0.19589    0.22086   1.00
C2       0.39757    0.24995    0.25299   1.00
C2       0.89757    0.25005    0.25299   1.00
C3a      0.91884    0.26810    0.28288   1.00
H1       0.90369    0.28207    0.30689   1.00
C3a      0.91704    0.23198    0.22191   1.00
H1       0.90051    0.21804    0.19882   1.00
C3b      0.95938    0.26828    0.28203   1.00
C5       0.98144    0.28795    0.31464   1.00
H2       0.99984    0.31179    0.30277   1.00
H2       0.96161    0.30075    0.33682   1.00
H2       1.00060    0.26655    0.32955   1.00
C3b      0.95756    0.23176    0.22039   1.00
C5       0.97767    0.21207    0.18655   1.00
H2       0.99670    0.18821    0.19733   1.00
H2       0.95655    0.19929    0.16556   1.00
H2       0.99594    0.23345    0.17055   1.00
C4       0.97873    0.25001    0.25062   1.00
C4       1.02127    0.24999    0.24938   1.00
C3b      1.04101    0.28081    0.23054   1.00
C5       1.01937    0.31406    0.21148   1.00
H2       1.00129    0.32954    0.23340   1.00
H2       1.03949    0.33564    0.19809   1.00
H2       0.99995    0.30275    0.18819   1.00
C3b      1.04204    0.21914    0.26704   1.00
C5       1.02152    0.18592    0.28733   1.00
H2       1.00217    0.17046    0.26649   1.00
H2       1.04235    0.16431    0.29952   1.00
H2       1.00350    0.19725    0.31171   1.00
C3a      1.08155    0.28045    0.22955   1.00
H1       1.09700    0.30401    0.21514   1.00
C3a      1.08257    0.21946    0.26566   1.00
H1       1.09881    0.19589    0.27914   1.00
C2       1.10243    0.24995    0.24701   1.00
C2       0.74701    0.10243    0.25005   1.00
C3a      0.71712    0.08116    0.26810   1.00
H1       0.69311    0.09631    0.28207   1.00
C3a      0.77809    0.08296    0.23198   1.00
H1       0.80118    0.09949    0.21804   1.00
C3b      0.71797    0.04062    0.26828   1.00
C5       0.68536    0.01856    0.28795   1.00
H2       0.69723    0.00016    0.31179   1.00
H2       0.66318    0.03839    0.30075   1.00
H2       0.67045    -0.00060   0.26655   1.00
C3b      0.77961    0.04244    0.23176   1.00
C5       0.81345    0.02233    0.21207   1.00
H2       0.80267    0.00330    0.18821   1.00
H2       0.83444    0.04345    0.19929   1.00
H2       0.82945    0.00406    0.23345   1.00
C4       0.74938    0.02127    0.25001   1.00
C4       0.75062    -0.02127   0.24999   1.00
C3b      0.76946    -0.04101   0.28081   1.00
C5       0.78852    -0.01937   0.31406   1.00
H2       0.76660    -0.00129   0.32954   1.00
H2       0.80191    -0.03949   0.33564   1.00
H2       0.81181    0.00005    0.30275   1.00
C3b      0.73296    -0.04204   0.21914   1.00
C5       0.71267    -0.02152   0.18592   1.00
H2       0.73351    -0.00217   0.17046   1.00
H2       0.70048    -0.04235   0.16431   1.00
H2       0.68829    -0.00350   0.19725   1.00
C3a      0.77045    -0.08155   0.28045   1.00
H1       0.78486    -0.09700   0.30401   1.00
C3a      0.73434    -0.08257   0.21946   1.00
H1       0.72086    -0.09881   0.19589   1.00
C2       0.75299    -0.10243   0.24995   1.00
C2       0.75005    0.24701    0.10243   1.00
C3a      0.76810    0.21712    0.08116   1.00
H1       0.78207    0.19311    0.09631   1.00
C3a      0.73198    0.27809    0.08296   1.00
H1       0.71804    0.30118    0.09949   1.00
C3b      0.76828    0.21797    0.04062   1.00
C5       0.78795    0.18536    0.01856   1.00
H2       0.81179    0.19723    0.00016   1.00
H2       0.80075    0.16318    0.03839   1.00
H2       0.76655    0.17045    -0.00060   1.00
C3b      0.73176    0.27961    0.04244   1.00
C5       0.71207    0.31345    0.02233   1.00
H2       0.68821    0.30267    0.00330   1.00
H2       0.69929    0.33444    0.04345   1.00
H2       0.73345    0.32945    0.00406   1.00
C4       0.75001    0.24938    0.02127   1.00
C4       0.74999    0.25062    -0.02127   1.00
C3b      0.78081    0.26946    -0.04101   1.00
C5       0.81406    0.28852    -0.01937   1.00
H2       0.82954    0.26660    -0.00129   1.00
H2       0.83564    0.30191    -0.03949   1.00
H2       0.80275    0.31181    0.00005   1.00
C3b      0.71914    0.23296    -0.04204   1.00
C5       0.68592    0.21267    -0.02152   1.00
H2       0.67046    0.23351    -0.00217   1.00
H2       0.66431    0.20048    -0.04235   1.00
H2       0.69725    0.18829    -0.00350   1.00
C3a      0.78045    0.27045    -0.08155   1.00
H1       0.80401    0.28486    -0.09700   1.00
C3a      0.71946    0.23434    -0.08257   1.00
H1       0.69589    0.22086    -0.09881   1.00
C2       0.74995    0.25299    -0.10243   1.00
C2       1.00005    1.00299    1.14757   1.00
C3a      1.01810    1.03288    1.16884   1.00
H1       1.03207    1.05689    1.15369   1.00
C3a      0.98198    0.97191    1.16704   1.00
H1       0.96804    0.94882    1.15051   1.00
C3b      1.01828    1.03203    1.20938   1.00
C5       1.03795    1.06464    1.23144   1.00
H2       1.06179    1.05277    1.24984   1.00
H2       1.05075    1.08682    1.21161   1.00
H2       1.01655    1.07955    1.25060   1.00
C3b      0.98176    0.97039    1.20756   1.00
C5       0.96207    0.93655    1.22767   1.00
H2       0.93821    0.94733    1.24670   1.00
H2       0.94929    0.91556    1.20655   1.00
H2       0.98345    0.92055    1.24594   1.00
C4       1.00001    1.00062    1.22873   1.00
C4       0.99999    0.99938    1.27127   1.00
C3b      1.03081    0.98054    1.29101   1.00
C5       1.06406    0.96148    1.26937   1.00
H2       1.07954    0.98340    1.25129   1.00
H2       1.08564    0.94809    1.28949   1.00
H2       1.05275    0.93819    1.24995   1.00
C3b      0.96914    1.01704    1.29204   1.00
C5       0.93592    1.03733    1.27152   1.00
H2       0.92046    1.01649    1.25217   1.00
H2       0.91431    1.04952    1.29235   1.00
H2       0.94725    1.06171    1.25350   1.00
C3a      1.03045    0.97955    1.33155   1.00
H1       1.05401    0.96514    1.34700   1.00
C3a      0.96946    1.01566    1.33257   1.00
H1       0.94589    1.02914    1.34881   1.00
C2       0.99995    0.99701    1.35243   1.00
C2       1.00299    1.14757    1.00005   1.00
C3a      1.03288    1.16884    1.01810   1.00
H1       1.05689    1.15369    1.03207   1.00
C3a      0.97191    1.16704    0.98198   1.00
H1       0.94882    1.15051    0.96804   1.00
C3b      1.03203    1.20938    1.01828   1.00
C5       1.06464    1.23144    1.03795   1.00
H2       1.05277    1.24984    1.06179   1.00
H2       1.08682    1.21161    1.05075   1.00
H2       1.07955    1.25060    1.01655   1.00
C3b      0.97039    1.20756    0.98176   1.00
C5       0.93655    1.22767    0.96207   1.00
H2       0.94733    1.24670    0.93821   1.00
H2       0.91556    1.20655    0.94929   1.00
H2       0.92055    1.24594    0.98345   1.00
C4       1.00062    1.22873    1.00001   1.00
C4       0.99938    1.27127    0.99999   1.00
C3b      0.98054    1.29101    1.03081   1.00
C5       0.96148    1.26937    1.06406   1.00
H2       0.98340    1.25129    1.07954   1.00
H2       0.94809    1.28949    1.08564   1.00
H2       0.93819    1.24995    1.05275   1.00
C3b      1.01704    1.29204    0.96914   1.00
C5       1.03733    1.27152    0.93592   1.00
H2       1.01649    1.25217    0.92046   1.00
H2       1.04952    1.29235    0.91431   1.00
H2       1.06171    1.25350    0.94725   1.00
C3a      0.97955    1.33155    1.03045   1.00
H1       0.96514    1.34700    1.05401   1.00
C3a      1.01566    1.33257    0.96946   1.00
H1       1.02914    1.34881    0.94589   1.00
C2       0.99701    1.35243    0.99995   1.00
C2       0.85243    1.00005    0.99701   1.00
C3a      0.83116    1.01810    0.96712   1.00
H1       0.84631    1.03207    0.94311   1.00
C3a      0.83296    0.98198    1.02809   1.00
H1       0.84949    0.96804    1.05118   1.00
C3b      0.79062    1.01828    0.96797   1.00
C5       0.76856    1.03795    0.93536   1.00
H2       0.75016    1.06179    0.94723   1.00
H2       0.78839    1.05075    0.91318   1.00
H2       0.74940    1.01655    0.92045   1.00
C3b      0.79244    0.98176    1.02961   1.00
C5       0.77233    0.96207    1.06345   1.00
H2       0.75330    0.93821    1.05267   1.00
H2       0.79345    0.94929    1.08444   1.00
H2       0.75406    0.98345    1.07945   1.00
C4       0.77127    1.00001    0.99938   1.00
C4       0.72873    0.99999    1.00062   1.00
C3b      0.70899    1.03081    1.01946   1.00
C5       0.73063    1.06406    1.03852   1.00
H2       0.74871    1.07954    1.01660   1.00
H2       0.71051    1.08564    1.05191   1.00
H2       0.75005    1.05275    1.06181   1.00
C3b      0.70796    0.96914    0.98296   1.00
C5       0.72848    0.93592    0.96267   1.00
H2       0.74783    0.92046    0.98351   1.00
H2       0.70765    0.91431    0.95048   1.00
H2       0.74650    0.94725    0.93829   1.00
C3a      0.66845    1.03045    1.02045   1.00
H1       0.65300    1.05401    1.03486   1.00
C3a      0.66743    0.96946    0.98434   1.00
H1       0.65119    0.94589    0.97086   1.00
C2       0.64757    0.99995    1.00299   1.00
C2       1.14757    1.00005    1.00299   1.00
C3a      1.16884    1.01810    1.03288   1.00
H1       1.15369    1.03207    1.05689   1.00
C3a      1.16704    0.98198    0.97191   1.00
H1       1.15051    0.96804    0.94882   1.00
C3b      1.20938    1.01828    1.03203   1.00
C5       1.23144    1.03795    1.06464   1.00
H2       1.24984    1.06179    1.05277   1.00
H2       1.21161    1.05075    1.08682   1.00
H2       1.25060    1.01655    1.07955   1.00
C3b      1.20756    0.98176    0.97039   1.00
C5       1.22767    0.96207    0.93655   1.00
H2       1.24670    0.93821    0.94733   1.00
H2       1.20655    0.94929    0.91556   1.00
H2       1.24594    0.98345    0.92055   1.00
C4       1.22873    1.00001    1.00062   1.00
C4       1.27127    0.99999    0.99938   1.00
C3b      1.29101    1.03081    0.98054   1.00
C5       1.26937    1.06406    0.96148   1.00
H2       1.25129    1.07954    0.98340   1.00
H2       1.28949    1.08564    0.94809   1.00
H2       1.24995    1.05275    0.93819   1.00
C3b      1.29204    0.96914    1.01704   1.00
C5       1.27152    0.93592    1.03733   1.00
H2       1.25217    0.92046    1.01649   1.00
H2       1.29235    0.91431    1.04952   1.00
H2       1.25350    0.94725    1.06171   1.00
C3a      1.33155    1.03045    0.97955   1.00
H1       1.34700    1.05401    0.96514   1.00
C3a      1.33257    0.96946    1.01566   1.00
H1       1.34881    0.94589    1.02914   1.00
C2       1.35243    0.99995    0.99701   1.00
C2       0.99701    0.85243    1.00005   1.00
C3a      0.96712    0.83116    1.01810   1.00
H1       0.94311    0.84631    1.03207   1.00
C3a      1.02809    0.83296    0.98198   1.00
H1       1.05118    0.84949    0.96804   1.00
C3b      0.96797    0.79062    1.01828   1.00
C5       0.93536    0.76856    1.03795   1.00
H2       0.94723    0.75016    1.06179   1.00
H2       0.91318    0.78839    1.05075   1.00
H2       0.92045    0.74940    1.01655   1.00
C3b      1.02961    0.79244    0.98176   1.00
C5       1.06345    0.77233    0.96207   1.00
H2       1.05267    0.75330    0.93821   1.00
H2       1.08444    0.79345    0.94929   1.00
H2       1.07945    0.75406    0.98345   1.00
C4       0.99938    0.77127    1.00001   1.00
C4       1.00062    0.72873    0.99999   1.00
C3b      1.01946    0.70899    1.03081   1.00
C5       1.03852    0.73063    1.06406   1.00
H2       1.01660    0.74871    1.07954   1.00
H2       1.05191    0.71051    1.08564   1.00
H2       1.06181    0.75005    1.05275   1.00
C3b      0.98296    0.70796    0.96914   1.00
C5       0.96267    0.72848    0.93592   1.00
H2       0.98351    0.74783    0.92046   1.00
H2       0.95048    0.70765    0.91431   1.00
H2       0.93829    0.74650    0.94725   1.00
C3a      1.02045    0.66845    1.03045   1.00
H1       1.03486    0.65300    1.05401   1.00
C3a      0.98434    0.66743    0.96946   1.00
H1       0.97086    0.65119    0.94589   1.00
C2       1.00299    0.64757    0.99995   1.00
C2       1.00005    0.99701    0.85243   1.00
C3a      1.01810    0.96712    0.83116   1.00
H1       1.03207    0.94311    0.84631   1.00
C3a      0.98198    1.02809    0.83296   1.00
H1       0.96804    1.05118    0.84949   1.00
C3b      1.01828    0.96797    0.79062   1.00
C5       1.03795    0.93536    0.76856   1.00
H2       1.06179    0.94723    0.75016   1.00
H2       1.05075    0.91318    0.78839   1.00
H2       1.01655    0.92045    0.74940   1.00
C3b      0.98176    1.02961    0.79244   1.00
C5       0.96207    1.06345    0.77233   1.00
H2       0.93821    1.05267    0.75330   1.00
H2       0.94929    1.08444    0.79345   1.00
H2       0.98345    1.07945    0.75406   1.00
C4       1.00001    0.99938    0.77127   1.00
C4       0.99999    1.00062    0.72873   1.00
C3b      1.03081    1.01946    0.70899   1.00
C5       1.06406    1.03852    0.73063   1.00
H2       1.07954    1.01660    0.74871   1.00
H2       1.08564    1.05191    0.71051   1.00
H2       1.05275    1.06181    0.75005   1.00
C3b      0.96914    0.98296    0.70796   1.00
C5       0.93592    0.96267    0.72848   1.00
H2       0.92046    0.98351    0.74783   1.00
H2       0.91431    0.95048    0.70765   1.00
H2       0.94725    0.93829    0.74650   1.00
C3a      1.03045    1.02045    0.66845   1.00
H1       1.05401    1.03486    0.65300   1.00
C3a      0.96946    0.98434    0.66743   1.00
H1       0.94589    0.97086    0.65119   1.00
C2       0.99995    1.00299    0.64757   1.00
C2       0.50005    0.50299    1.14757   1.00
C3a      0.51810    0.53288    1.16884   1.00
H1       0.53207    0.55689    1.15369   1.00
C3a      0.48198    0.47191    1.16704   1.00
H1       0.46804    0.44882    1.15051   1.00
C3b      0.51828    0.53203    1.20938   1.00
C5       0.53795    0.56464    1.23144   1.00
H2       0.56179    0.55277    1.24984   1.00
H2       0.55075    0.58682    1.21161   1.00
H2       0.51655    0.57955    1.25060   1.00
C3b      0.48176    0.47039    1.20756   1.00
C5       0.46207    0.43655    1.22767   1.00
H2       0.43821    0.44733    1.24670   1.00
H2       0.44929    0.41556    1.20655   1.00
H2       0.48345    0.42055    1.24594   1.00
C4       0.50001    0.50062    1.22873   1.00
C4       0.49999    0.49938    1.27127   1.00
C3b      0.53081    0.48054    1.29101   1.00
C5       0.56406    0.46148    1.26937   1.00
H2       0.57954    0.48340    1.25129   1.00
H2       0.58564    0.44809    1.28949   1.00
H2       0.55275    0.43819    1.24995   1.00
C3b      0.46914    0.51704    1.29204   1.00
C5       0.43592    0.53733    1.27152   1.00
H2       0.42046    0.51649    1.25217   1.00
H2       0.41431    0.54952    1.29235   1.00
H2       0.44725    0.56171    1.25350   1.00
C3a      0.53045    0.47955    1.33155   1.00
H1       0.55401    0.46514    1.34700   1.00
C3a      0.46946    0.51566    1.33257   1.00
H1       0.44589    0.52914    1.34881   1.00
C2       0.49995    0.49701    1.35243   1.00
C2       0.50299    0.64757    1.00005   1.00
C3a      0.53288    0.66884    1.01810   1.00
H1       0.55689    0.65369    1.03207   1.00
C3a      0.47191    0.66704    0.98198   1.00
H1       0.44882    0.65051    0.96804   1.00
C3b      0.53203    0.70938    1.01828   1.00
C5       0.56464    0.73144    1.03795   1.00
H2       0.55277    0.74984    1.06179   1.00
H2       0.58682    0.71161    1.05075   1.00
H2       0.57955    0.75060    1.01655   1.00
C3b      0.47039    0.70756    0.98176   1.00
C5       0.43655    0.72767    0.96207   1.00
H2       0.44733    0.74670    0.93821   1.00
H2       0.41556    0.70655    0.94929   1.00
H2       0.42055    0.74594    0.98345   1.00
C4       0.50062    0.72873    1.00001   1.00
C4       0.49938    0.77127    0.99999   1.00
C3b      0.48054    0.79101    1.03081   1.00
C5       0.46148    0.76937    1.06406   1.00
H2       0.48340    0.75129    1.07954   1.00
H2       0.44809    0.78949    1.08564   1.00
H2       0.43819    0.74995    1.05275   1.00
C3b      0.51704    0.79204    0.96914   1.00
C5       0.53733    0.77152    0.93592   1.00
H2       0.51649    0.75217    0.92046   1.00
H2       0.54952    0.79235    0.91431   1.00
H2       0.56171    0.75350    0.94725   1.00
C3a      0.47955    0.83155    1.03045   1.00
H1       0.46514    0.84700    1.05401   1.00
C3a      0.51566    0.83257    0.96946   1.00
H1       0.52914    0.84881    0.94589   1.00
C2       0.49701    0.85243    0.99995   1.00
C2       0.35243    0.50005    0.99701   1.00
C3a      0.33116    0.51810    0.96712   1.00
H1       0.34631    0.53207    0.94311   1.00
C3a      0.33296    0.48198    1.02809   1.00
H1       0.34949    0.46804    1.05118   1.00
C3b      0.29062    0.51828    0.96797   1.00
C5       0.26856    0.53795    0.93536   1.00
H2       0.25016    0.56179    0.94723   1.00
H2       0.28839    0.55075    0.91318   1.00
H2       0.24940    0.51655    0.92045   1.00
C3b      0.29244    0.48176    1.02961   1.00
C5       0.27233    0.46207    1.06345   1.00
H2       0.25330    0.43821    1.05267   1.00
H2       0.29345    0.44929    1.08444   1.00
H2       0.25406    0.48345    1.07945   1.00
C4       0.27127    0.50001    0.99938   1.00
C4       0.22873    0.49999    1.00062   1.00
C3b      0.20899    0.53081    1.01946   1.00
C5       0.23063    0.56406    1.03852   1.00
H2       0.24871    0.57954    1.01660   1.00
H2       0.21051    0.58564    1.05191   1.00
H2       0.25005    0.55275    1.06181   1.00
C3b      0.20796    0.46914    0.98296   1.00
C5       0.22848    0.43592    0.96267   1.00
H2       0.24783    0.42046    0.98351   1.00
H2       0.20765    0.41431    0.95048   1.00
H2       0.24650    0.44725    0.93829   1.00
C3a      0.16845    0.53045    1.02045   1.00
H1       0.15300    0.55401    1.03486   1.00
C3a      0.16743    0.46946    0.98434   1.00
H1       0.15119    0.44589    0.97086   1.00
C2       0.14757    0.49995    1.00299   1.00
C2       0.64757    0.50005    1.00299   1.00
C3a      0.66884    0.51810    1.03288   1.00
H1       0.65369    0.53207    1.05689   1.00
C3a      0.66704    0.48198    0.97191   1.00
H1       0.65051    0.46804    0.94882   1.00
C3b      0.70938    0.51828    1.03203   1.00
C5       0.73144    0.53795    1.06464   1.00
H2       0.74984    0.56179    1.05277   1.00
H2       0.71161    0.55075    1.08682   1.00
H2       0.75060    0.51655    1.07955   1.00
C3b      0.70756    0.48176    0.97039   1.00
C5       0.72767    0.46207    0.93655   1.00
H2       0.74670    0.43821    0.94733   1.00
H2       0.70655    0.44929    0.91556   1.00
H2       0.74594    0.48345    0.92055   1.00
C4       0.72873    0.50001    1.00062   1.00
C4       0.77127    0.49999    0.99938   1.00
C3b      0.79101    0.53081    0.98054   1.00
C5       0.76937    0.56406    0.96148   1.00
H2       0.75129    0.57954    0.98340   1.00
H2       0.78949    0.58564    0.94809   1.00
H2       0.74995    0.55275    0.93819   1.00
C3b      0.79204    0.46914    1.01704   1.00
C5       0.77152    0.43592    1.03733   1.00
H2       0.75217    0.42046    1.01649   1.00
H2       0.79235    0.41431    1.04952   1.00
H2       0.75350    0.44725    1.06171   1.00
C3a      0.83155    0.53045    0.97955   1.00
H1       0.84700    0.55401    0.96514   1.00
C3a      0.83257    0.46946    1.01566   1.00
H1       0.84881    0.44589    1.02914   1.00
C2       0.85243    0.49995    0.99701   1.00
C2       0.49701    0.35243    1.00005   1.00
C3a      0.46712    0.33116    1.01810   1.00
H1       0.44311    0.34631    1.03207   1.00
C3a      0.52809    0.33296    0.98198   1.00
H1       0.55118    0.34949    0.96804   1.00
C3b      0.46797    0.29062    1.01828   1.00
C5       0.43536    0.26856    1.03795   1.00
H2       0.44723    0.25016    1.06179   1.00
H2       0.41318    0.28839    1.05075   1.00
H2       0.42045    0.24940    1.01655   1.00
C3b      0.52961    0.29244    0.98176   1.00
C5       0.56345    0.27233    0.96207   1.00
H2       0.55267    0.25330    0.93821   1.00
H2       0.58444    0.29345    0.94929   1.00
H2       0.57945    0.25406    0.98345   1.00
C4       0.49938    0.27127    1.00001   1.00
C4       0.50062    0.22873    0.99999   1.00
C3b      0.51946    0.20899    1.03081   1.00
C5       0.53852    0.23063    1.06406   1.00
H2       0.51660    0.24871    1.07954   1.00
H2       0.55191    0.21051    1.08564   1.00
H2       0.56181    0.25005    1.05275   1.00
C3b      0.48296    0.20796    0.96914   1.00
C5       0.46267    0.22848    0.93592   1.00
H2       0.48351    0.24783    0.92046   1.00
H2       0.45048    0.20765    0.91431   1.00
H2       0.43829    0.24650    0.94725   1.00
C3a      0.52045    0.16845    1.03045   1.00
H1       0.53486    0.15300    1.05401   1.00
C3a      0.48434    0.16743    0.96946   1.00
H1       0.47086    0.15119    0.94589   1.00
C2       0.50299    0.14757    0.99995   1.00
C2       0.50005    0.49701    0.85243   1.00
C3a      0.51810    0.46712    0.83116   1.00
H1       0.53207    0.44311    0.84631   1.00
C3a      0.48198    0.52809    0.83296   1.00
H1       0.46804    0.55118    0.84949   1.00
C3b      0.51828    0.46797    0.79062   1.00
C5       0.53795    0.43536    0.76856   1.00
H2       0.56179    0.44723    0.75016   1.00
H2       0.55075    0.41318    0.78839   1.00
H2       0.51655    0.42045    0.74940   1.00
C3b      0.48176    0.52961    0.79244   1.00
C5       0.46207    0.56345    0.77233   1.00
H2       0.43821    0.55267    0.75330   1.00
H2       0.44929    0.58444    0.79345   1.00
H2       0.48345    0.57945    0.75406   1.00
C4       0.50001    0.49938    0.77127   1.00
C4       0.49999    0.50062    0.72873   1.00
C3b      0.53081    0.51946    0.70899   1.00
C5       0.56406    0.53852    0.73063   1.00
H2       0.57954    0.51660    0.74871   1.00
H2       0.58564    0.55191    0.71051   1.00
H2       0.55275    0.56181    0.75005   1.00
C3b      0.46914    0.48296    0.70796   1.00
C5       0.43592    0.46267    0.72848   1.00
H2       0.42046    0.48351    0.74783   1.00
H2       0.41431    0.45048    0.70765   1.00
H2       0.44725    0.43829    0.74650   1.00
C3a      0.53045    0.52045    0.66845   1.00
H1       0.55401    0.53486    0.65300   1.00
C3a      0.46946    0.48434    0.66743   1.00
H1       0.44589    0.47086    0.65119   1.00
C2       0.49995    0.50299    0.64757   1.00
C2       0.50005    1.00299    0.64757   1.00
C3a      0.51810    1.03288    0.66884   1.00
H1       0.53207    1.05689    0.65369   1.00
C3a      0.48198    0.97191    0.66704   1.00
H1       0.46804    0.94882    0.65051   1.00
C3b      0.51828    1.03203    0.70938   1.00
C5       0.53795    1.06464    0.73144   1.00
H2       0.56179    1.05277    0.74984   1.00
H2       0.55075    1.08682    0.71161   1.00
H2       0.51655    1.07955    0.75060   1.00
C3b      0.48176    0.97039    0.70756   1.00
C5       0.46207    0.93655    0.72767   1.00
H2       0.43821    0.94733    0.74670   1.00
H2       0.44929    0.91556    0.70655   1.00
H2       0.48345    0.92055    0.74594   1.00
C4       0.50001    1.00062    0.72873   1.00
C4       0.49999    0.99938    0.77127   1.00
C3b      0.53081    0.98054    0.79101   1.00
C5       0.56406    0.96148    0.76937   1.00
H2       0.57954    0.98340    0.75129   1.00
H2       0.58564    0.94809    0.78949   1.00
H2       0.55275    0.93819    0.74995   1.00
C3b      0.46914    1.01704    0.79204   1.00
C5       0.43592    1.03733    0.77152   1.00
H2       0.42046    1.01649    0.75217   1.00
H2       0.41431    1.04952    0.79235   1.00
H2       0.44725    1.06171    0.75350   1.00
C3a      0.53045    0.97955    0.83155   1.00
H1       0.55401    0.96514    0.84700   1.00
C3a      0.46946    1.01566    0.83257   1.00
H1       0.44589    1.02914    0.84881   1.00
C2       0.49995    0.99701    0.85243   1.00
C2       0.50299    1.14757    0.50005   1.00
C3a      0.53288    1.16884    0.51810   1.00
H1       0.55689    1.15369    0.53207   1.00
C3a      0.47191    1.16704    0.48198   1.00
H1       0.44882    1.15051    0.46804   1.00
C3b      0.53203    1.20938    0.51828   1.00
C5       0.56464    1.23144    0.53795   1.00
H2       0.55277    1.24984    0.56179   1.00
H2       0.58682    1.21161    0.55075   1.00
H2       0.57955    1.25060    0.51655   1.00
C3b      0.47039    1.20756    0.48176   1.00
C5       0.43655    1.22767    0.46207   1.00
H2       0.44733    1.24670    0.43821   1.00
H2       0.41556    1.20655    0.44929   1.00
H2       0.42055    1.24594    0.48345   1.00
C4       0.50062    1.22873    0.50001   1.00
C4       0.49938    1.27127    0.49999   1.00
C3b      0.48054    1.29101    0.53081   1.00
C5       0.46148    1.26937    0.56406   1.00
H2       0.48340    1.25129    0.57954   1.00
H2       0.44809    1.28949    0.58564   1.00
H2       0.43819    1.24995    0.55275   1.00
C3b      0.51704    1.29204    0.46914   1.00
C5       0.53733    1.27152    0.43592   1.00
H2       0.51649    1.25217    0.42046   1.00
H2       0.54952    1.29235    0.41431   1.00
H2       0.56171    1.25350    0.44725   1.00
C3a      0.47955    1.33155    0.53045   1.00
H1       0.46514    1.34700    0.55401   1.00
C3a      0.51566    1.33257    0.46946   1.00
H1       0.52914    1.34881    0.44589   1.00
C2       0.49701    1.35243    0.49995   1.00
C2       0.35243    1.00005    0.49701   1.00
C3a      0.33116    1.01810    0.46712   1.00
H1       0.34631    1.03207    0.44311   1.00
C3a      0.33296    0.98198    0.52809   1.00
H1       0.34949    0.96804    0.55118   1.00
C3b      0.29062    1.01828    0.46797   1.00
C5       0.26856    1.03795    0.43536   1.00
H2       0.25016    1.06179    0.44723   1.00
H2       0.28839    1.05075    0.41318   1.00
H2       0.24940    1.01655    0.42045   1.00
C3b      0.29244    0.98176    0.52961   1.00
C5       0.27233    0.96207    0.56345   1.00
H2       0.25330    0.93821    0.55267   1.00
H2       0.29345    0.94929    0.58444   1.00
H2       0.25406    0.98345    0.57945   1.00
C4       0.27127    1.00001    0.49938   1.00
C4       0.22873    0.99999    0.50062   1.00
C3b      0.20899    1.03081    0.51946   1.00
C5       0.23063    1.06406    0.53852   1.00
H2       0.24871    1.07954    0.51660   1.00
H2       0.21051    1.08564    0.55191   1.00
H2       0.25005    1.05275    0.56181   1.00
C3b      0.20796    0.96914    0.48296   1.00
C5       0.22848    0.93592    0.46267   1.00
H2       0.24783    0.92046    0.48351   1.00
H2       0.20765    0.91431    0.45048   1.00
H2       0.24650    0.94725    0.43829   1.00
C3a      0.16845    1.03045    0.52045   1.00
H1       0.15300    1.05401    0.53486   1.00
C3a      0.16743    0.96946    0.48434   1.00
H1       0.15119    0.94589    0.47086   1.00
C2       0.14757    0.99995    0.50299   1.00
C2       0.64757    1.00005    0.50299   1.00
C3a      0.66884    1.01810    0.53288   1.00
H1       0.65369    1.03207    0.55689   1.00
C3a      0.66704    0.98198    0.47191   1.00
H1       0.65051    0.96804    0.44882   1.00
C3b      0.70938    1.01828    0.53203   1.00
C5       0.73144    1.03795    0.56464   1.00
H2       0.74984    1.06179    0.55277   1.00
H2       0.71161    1.05075    0.58682   1.00
H2       0.75060    1.01655    0.57955   1.00
C3b      0.70756    0.98176    0.47039   1.00
C5       0.72767    0.96207    0.43655   1.00
H2       0.74670    0.93821    0.44733   1.00
H2       0.70655    0.94929    0.41556   1.00
H2       0.74594    0.98345    0.42055   1.00
C4       0.72873    1.00001    0.50062   1.00
C4       0.77127    0.99999    0.49938   1.00
C3b      0.79101    1.03081    0.48054   1.00
C5       0.76937    1.06406    0.46148   1.00
H2       0.75129    1.07954    0.48340   1.00
H2       0.78949    1.08564    0.44809   1.00
H2       0.74995    1.05275    0.43819   1.00
C3b      0.79204    0.96914    0.51704   1.00
C5       0.77152    0.93592    0.53733   1.00
H2       0.75217    0.92046    0.51649   1.00
H2       0.79235    0.91431    0.54952   1.00
H2       0.75350    0.94725    0.56171   1.00
C3a      0.83155    1.03045    0.47955   1.00
H1       0.84700    1.05401    0.46514   1.00
C3a      0.83257    0.96946    0.51566   1.00
H1       0.84881    0.94589    0.52914   1.00
C2       0.85243    0.99995    0.49701   1.00
C2       0.49701    0.85243    0.50005   1.00
C3a      0.46712    0.83116    0.51810   1.00
H1       0.44311    0.84631    0.53207   1.00
C3a      0.52809    0.83296    0.48198   1.00
H1       0.55118    0.84949    0.46804   1.00
C3b      0.46797    0.79062    0.51828   1.00
C5       0.43536    0.76856    0.53795   1.00
H2       0.44723    0.75016    0.56179   1.00
H2       0.41318    0.78839    0.55075   1.00
H2       0.42045    0.74940    0.51655   1.00
C3b      0.52961    0.79244    0.48176   1.00
C5       0.56345    0.77233    0.46207   1.00
H2       0.55267    0.75330    0.43821   1.00
H2       0.58444    0.79345    0.44929   1.00
H2       0.57945    0.75406    0.48345   1.00
C4       0.49938    0.77127    0.50001   1.00
C4       0.50062    0.72873    0.49999   1.00
C3b      0.51946    0.70899    0.53081   1.00
C5       0.53852    0.73063    0.56406   1.00
H2       0.51660    0.74871    0.57954   1.00
H2       0.55191    0.71051    0.58564   1.00
H2       0.56181    0.75005    0.55275   1.00
C3b      0.48296    0.70796    0.46914   1.00
C5       0.46267    0.72848    0.43592   1.00
H2       0.48351    0.74783    0.42046   1.00
H2       0.45048    0.70765    0.41431   1.00
H2       0.43829    0.74650    0.44725   1.00
C3a      0.52045    0.66845    0.53045   1.00
H1       0.53486    0.65300    0.55401   1.00
C3a      0.48434    0.66743    0.46946   1.00
H1       0.47086    0.65119    0.44589   1.00
C2       0.50299    0.64757    0.49995   1.00
C2       0.50005    0.99701    0.35243   1.00
C3a      0.51810    0.96712    0.33116   1.00
H1       0.53207    0.94311    0.34631   1.00
C3a      0.48198    1.02809    0.33296   1.00
H1       0.46804    1.05118    0.34949   1.00
C3b      0.51828    0.96797    0.29062   1.00
C5       0.53795    0.93536    0.26856   1.00
H2       0.56179    0.94723    0.25016   1.00
H2       0.55075    0.91318    0.28839   1.00
H2       0.51655    0.92045    0.24940   1.00
C3b      0.48176    1.02961    0.29244   1.00
C5       0.46207    1.06345    0.27233   1.00
H2       0.43821    1.05267    0.25330   1.00
H2       0.44929    1.08444    0.29345   1.00
H2       0.48345    1.07945    0.25406   1.00
C4       0.50001    0.99938    0.27127   1.00
C4       0.49999    1.00062    0.22873   1.00
C3b      0.53081    1.01946    0.20899   1.00
C5       0.56406    1.03852    0.23063   1.00
H2       0.57954    1.01660    0.24871   1.00
H2       0.58564    1.05191    0.21051   1.00
H2       0.55275    1.06181    0.25005   1.00
C3b      0.46914    0.98296    0.20796   1.00
C5       0.43592    0.96267    0.22848   1.00
H2       0.42046    0.98351    0.24783   1.00
H2       0.41431    0.95048    0.20765   1.00
H2       0.44725    0.93829    0.24650   1.00
C3a      0.53045    1.02045    0.16845   1.00
H1       0.55401    1.03486    0.15300   1.00
C3a      0.46946    0.98434    0.16743   1.00
H1       0.44589    0.97086    0.15119   1.00
C2       0.49995    1.00299    0.14757   1.00
C2       1.00005    0.50299    0.64757   1.00
C3a      1.01810    0.53288    0.66884   1.00
H1       1.03207    0.55689    0.65369   1.00
C3a      0.98198    0.47191    0.66704   1.00
H1       0.96804    0.44882    0.65051   1.00
C3b      1.01828    0.53203    0.70938   1.00
C5       1.03795    0.56464    0.73144   1.00
H2       1.06179    0.55277    0.74984   1.00
H2       1.05075    0.58682    0.71161   1.00
H2       1.01655    0.57955    0.75060   1.00
C3b      0.98176    0.47039    0.70756   1.00
C5       0.96207    0.43655    0.72767   1.00
H2       0.93821    0.44733    0.74670   1.00
H2       0.94929    0.41556    0.70655   1.00
H2       0.98345    0.42055    0.74594   1.00
C4       1.00001    0.50062    0.72873   1.00
C4       0.99999    0.49938    0.77127   1.00
C3b      1.03081    0.48054    0.79101   1.00
C5       1.06406    0.46148    0.76937   1.00
H2       1.07954    0.48340    0.75129   1.00
H2       1.08564    0.44809    0.78949   1.00
H2       1.05275    0.43819    0.74995   1.00
C3b      0.96914    0.51704    0.79204   1.00
C5       0.93592    0.53733    0.77152   1.00
H2       0.92046    0.51649    0.75217   1.00
H2       0.91431    0.54952    0.79235   1.00
H2       0.94725    0.56171    0.75350   1.00
C3a      1.03045    0.47955    0.83155   1.00
H1       1.05401    0.46514    0.84700   1.00
C3a      0.96946    0.51566    0.83257   1.00
H1       0.94589    0.52914    0.84881   1.00
C2       0.99995    0.49701    0.85243   1.00
C2       1.00299    0.64757    0.50005   1.00
C3a      1.03288    0.66884    0.51810   1.00
H1       1.05689    0.65369    0.53207   1.00
C3a      0.97191    0.66704    0.48198   1.00
H1       0.94882    0.65051    0.46804   1.00
C3b      1.03203    0.70938    0.51828   1.00
C5       1.06464    0.73144    0.53795   1.00
H2       1.05277    0.74984    0.56179   1.00
H2       1.08682    0.71161    0.55075   1.00
H2       1.07955    0.75060    0.51655   1.00
C3b      0.97039    0.70756    0.48176   1.00
C5       0.93655    0.72767    0.46207   1.00
H2       0.94733    0.74670    0.43821   1.00
H2       0.91556    0.70655    0.44929   1.00
H2       0.92055    0.74594    0.48345   1.00
C4       1.00062    0.72873    0.50001   1.00
C4       0.99938    0.77127    0.49999   1.00
C3b      0.98054    0.79101    0.53081   1.00
C5       0.96148    0.76937    0.56406   1.00
H2       0.98340    0.75129    0.57954   1.00
H2       0.94809    0.78949    0.58564   1.00
H2       0.93819    0.74995    0.55275   1.00
C3b      1.01704    0.79204    0.46914   1.00
C5       1.03733    0.77152    0.43592   1.00
H2       1.01649    0.75217    0.42046   1.00
H2       1.04952    0.79235    0.41431   1.00
H2       1.06171    0.75350    0.44725   1.00
C3a      0.97955    0.83155    0.53045   1.00
H1       0.96514    0.84700    0.55401   1.00
C3a      1.01566    0.83257    0.46946   1.00
H1       1.02914    0.84881    0.44589   1.00
C2       0.99701    0.85243    0.49995   1.00
C2       0.85243    0.50005    0.49701   1.00
C3a      0.83116    0.51810    0.46712   1.00
H1       0.84631    0.53207    0.44311   1.00
C3a      0.83296    0.48198    0.52809   1.00
H1       0.84949    0.46804    0.55118   1.00
C3b      0.79062    0.51828    0.46797   1.00
C5       0.76856    0.53795    0.43536   1.00
H2       0.75016    0.56179    0.44723   1.00
H2       0.78839    0.55075    0.41318   1.00
H2       0.74940    0.51655    0.42045   1.00
C3b      0.79244    0.48176    0.52961   1.00
C5       0.77233    0.46207    0.56345   1.00
H2       0.75330    0.43821    0.55267   1.00
H2       0.79345    0.44929    0.58444   1.00
H2       0.75406    0.48345    0.57945   1.00
C4       0.77127    0.50001    0.49938   1.00
C4       0.72873    0.49999    0.50062   1.00
C3b      0.70899    0.53081    0.51946   1.00
C5       0.73063    0.56406    0.53852   1.00
H2       0.74871    0.57954    0.51660   1.00
H2       0.71051    0.58564    0.55191   1.00
H2       0.75005    0.55275    0.56181   1.00
C3b      0.70796    0.46914    0.48296   1.00
C5       0.72848    0.43592    0.46267   1.00
H2       0.74783    0.42046    0.48351   1.00
H2       0.70765    0.41431    0.45048   1.00
H2       0.74650    0.44725    0.43829   1.00
C3a      0.66845    0.53045    0.52045   1.00
H1       0.65300    0.55401    0.53486   1.00
C3a      0.66743    0.46946    0.48434   1.00
H1       0.65119    0.44589    0.47086   1.00
C2       0.64757    0.49995    0.50299   1.00
C2       1.14757    0.50005    0.50299   1.00
C3a      1.16884    0.51810    0.53288   1.00
H1       1.15369    0.53207    0.55689   1.00
C3a      1.16704    0.48198    0.47191   1.00
H1       1.15051    0.46804    0.44882   1.00
C3b      1.20938    0.51828    0.53203   1.00
C5       1.23144    0.53795    0.56464   1.00
H2       1.24984    0.56179    0.55277   1.00
H2       1.21161    0.55075    0.58682   1.00
H2       1.25060    0.51655    0.57955   1.00
C3b      1.20756    0.48176    0.47039   1.00
C5       1.22767    0.46207    0.43655   1.00
H2       1.24670    0.43821    0.44733   1.00
H2       1.20655    0.44929    0.41556   1.00
H2       1.24594    0.48345    0.42055   1.00
C4       1.22873    0.50001    0.50062   1.00
C4       1.27127    0.49999    0.49938   1.00
C3b      1.29101    0.53081    0.48054   1.00
C5       1.26937    0.56406    0.46148   1.00
H2       1.25129    0.57954    0.48340   1.00
H2       1.28949    0.58564    0.44809   1.00
H2       1.24995    0.55275    0.43819   1.00
C3b      1.29204    0.46914    0.51704   1.00
C5       1.27152    0.43592    0.53733   1.00
H2       1.25217    0.42046    0.51649   1.00
H2       1.29235    0.41431    0.54952   1.00
H2       1.25350    0.44725    0.56171   1.00
C3a      1.33155    0.53045    0.47955   1.00
H1       1.34700    0.55401    0.46514   1.00
C3a      1.33257    0.46946    0.51566   1.00
H1       1.34881    0.44589    0.52914   1.00
C2       1.35243    0.49995    0.49701   1.00
C2       0.99701    0.35243    0.50005   1.00
C3a      0.96712    0.33116    0.51810   1.00
H1       0.94311    0.34631    0.53207   1.00
C3a      1.02809    0.33296    0.48198   1.00
H1       1.05118    0.34949    0.46804   1.00
C3b      0.96797    0.29062    0.51828   1.00
C5       0.93536    0.26856    0.53795   1.00
H2       0.94723    0.25016    0.56179   1.00
H2       0.91318    0.28839    0.55075   1.00
H2       0.92045    0.24940    0.51655   1.00
C3b      1.02961    0.29244    0.48176   1.00
C5       1.06345    0.27233    0.46207   1.00
H2       1.05267    0.25330    0.43821   1.00
H2       1.08444    0.29345    0.44929   1.00
H2       1.07945    0.25406    0.48345   1.00
C4       0.99938    0.27127    0.50001   1.00
C4       1.00062    0.22873    0.49999   1.00
C3b      1.01946    0.20899    0.53081   1.00
C5       1.03852    0.23063    0.56406   1.00
H2       1.01660    0.24871    0.57954   1.00
H2       1.05191    0.21051    0.58564   1.00
H2       1.06181    0.25005    0.55275   1.00
C3b      0.98296    0.20796    0.46914   1.00
C5       0.96267    0.22848    0.43592   1.00
H2       0.98351    0.24783    0.42046   1.00
H2       0.95048    0.20765    0.41431   1.00
H2       0.93829    0.24650    0.44725   1.00
C3a      1.02045    0.16845    0.53045   1.00
H1       1.03486    0.15300    0.55401   1.00
C3a      0.98434    0.16743    0.46946   1.00
H1       0.97086    0.15119    0.44589   1.00
C2       1.00299    0.14757    0.49995   1.00
C2       1.00005    0.49701    0.35243   1.00
C3a      1.01810    0.46712    0.33116   1.00
H1       1.03207    0.44311    0.34631   1.00
C3a      0.98198    0.52809    0.33296   1.00
H1       0.96804    0.55118    0.34949   1.00
C3b      1.01828    0.46797    0.29062   1.00
C5       1.03795    0.43536    0.26856   1.00
H2       1.06179    0.44723    0.25016   1.00
H2       1.05075    0.41318    0.28839   1.00
H2       1.01655    0.42045    0.24940   1.00
C3b      0.98176    0.52961    0.29244   1.00
C5       0.96207    0.56345    0.27233   1.00
H2       0.93821    0.55267    0.25330   1.00
H2       0.94929    0.58444    0.29345   1.00
H2       0.98345    0.57945    0.25406   1.00
C4       1.00001    0.49938    0.27127   1.00
C4       0.99999    0.50062    0.22873   1.00
C3b      1.03081    0.51946    0.20899   1.00
C5       1.06406    0.53852    0.23063   1.00
H2       1.07954    0.51660    0.24871   1.00
H2       1.08564    0.55191    0.21051   1.00
H2       1.05275    0.56181    0.25005   1.00
C3b      0.96914    0.48296    0.20796   1.00
C5       0.93592    0.46267    0.22848   1.00
H2       0.92046    0.48351    0.24783   1.00
H2       0.91431    0.45048    0.20765   1.00
H2       0.94725    0.43829    0.24650   1.00
C3a      1.03045    0.52045    0.16845   1.00
H1       1.05401    0.53486    0.15300   1.00
C3a      0.96946    0.48434    0.16743   1.00
H1       0.94589    0.47086    0.15119   1.00
C2       0.99995    0.50299    0.14757   1.00
