data_IRMOF10_SG202_interpen_Ligand3lp_label_k.

_audit_creation_method             'generated by an auxiliary program of Tobunporous'

_symmetry_space_group_name_H-M     'P 1'
_symmetry_Int_Tables_number        1
_symmetry_cell_setting             triclinic

_cell_length_a                    34.2800
_cell_length_b                    34.2800
_cell_length_c                    34.2800
_cell_angle_alpha                 90.0000
_cell_angle_beta                  90.0000
_cell_angle_gamma                 90.0000

loop_
_atom_site_label
_atom_site_fract_x
_atom_site_fract_y
_atom_site_fract_z
_atom_site_occupancy
O1       0.75000    0.75000    0.75000   1.00
Zn1      0.71720    0.78280    0.78280   1.00
Zn1      0.78280    0.71720    0.78280   1.00
Zn1      0.78280    0.78280    0.71720   1.00
Zn1      0.71720    0.71720    0.71720   1.00
O2       0.72650    0.77350    0.83820   1.00
O2       0.72650    0.83820    0.77350   1.00
O2       0.66180    0.77350    0.77350   1.00
O2       0.77350    0.72650    0.83820   1.00
O2       0.83820    0.72650    0.77350   1.00
O2       0.77350    0.66180    0.77350   1.00
O2       0.77350    0.83820    0.72650   1.00
O2       0.83820    0.77350    0.72650   1.00
O2       0.77350    0.77350    0.66180   1.00
O2       0.66180    0.72650    0.72650   1.00
O2       0.72650    0.66180    0.72650   1.00
O2       0.72650    0.72650    0.66180   1.00
C1       0.75000    0.75000    0.85520   1.00
C1       0.75000    0.85520    0.75000   1.00
C1       0.64480    0.75000    0.75000   1.00
C1       0.85520    0.75000    0.75000   1.00
C1       0.75000    0.64480    0.75000   1.00
C1       0.75000    0.75000    0.64480   1.00
O1       0.25000    0.25000    0.75000   1.00
Zn1      0.21720    0.28280    0.78280   1.00
Zn1      0.28280    0.21720    0.78280   1.00
Zn1      0.28280    0.28280    0.71720   1.00
Zn1      0.21720    0.21720    0.71720   1.00
O2       0.22650    0.27350    0.83820   1.00
O2       0.22650    0.33820    0.77350   1.00
O2       0.16180    0.27350    0.77350   1.00
O2       0.27350    0.22650    0.83820   1.00
O2       0.33820    0.22650    0.77350   1.00
O2       0.27350    0.16180    0.77350   1.00
O2       0.27350    0.33820    0.72650   1.00
O2       0.33820    0.27350    0.72650   1.00
O2       0.27350    0.27350    0.66180   1.00
O2       0.16180    0.22650    0.72650   1.00
O2       0.22650    0.16180    0.72650   1.00
O2       0.22650    0.22650    0.66180   1.00
C1       0.25000    0.25000    0.85520   1.00
C1       0.25000    0.35520    0.75000   1.00
C1       0.14480    0.25000    0.75000   1.00
C1       0.35520    0.25000    0.75000   1.00
C1       0.25000    0.14480    0.75000   1.00
C1       0.25000    0.25000    0.64480   1.00
O1       0.25000    0.75000    0.25000   1.00
Zn1      0.21720    0.78280    0.28280   1.00
Zn1      0.28280    0.71720    0.28280   1.00
Zn1      0.28280    0.78280    0.21720   1.00
Zn1      0.21720    0.71720    0.21720   1.00
O2       0.22650    0.77350    0.33820   1.00
O2       0.22650    0.83820    0.27350   1.00
O2       0.16180    0.77350    0.27350   1.00
O2       0.27350    0.72650    0.33820   1.00
O2       0.33820    0.72650    0.27350   1.00
O2       0.27350    0.66180    0.27350   1.00
O2       0.27350    0.83820    0.22650   1.00
O2       0.33820    0.77350    0.22650   1.00
O2       0.27350    0.77350    0.16180   1.00
O2       0.16180    0.72650    0.22650   1.00
O2       0.22650    0.66180    0.22650   1.00
O2       0.22650    0.72650    0.16180   1.00
C1       0.25000    0.75000    0.35520   1.00
C1       0.25000    0.85520    0.25000   1.00
C1       0.14480    0.75000    0.25000   1.00
C1       0.35520    0.75000    0.25000   1.00
C1       0.25000    0.64480    0.25000   1.00
C1       0.25000    0.75000    0.14480   1.00
O1       0.75000    0.25000    0.25000   1.00
Zn1      0.71720    0.28280    0.28280   1.00
Zn1      0.78280    0.21720    0.28280   1.00
Zn1      0.78280    0.28280    0.21720   1.00
Zn1      0.71720    0.21720    0.21720   1.00
O2       0.72650    0.27350    0.33820   1.00
O2       0.72650    0.33820    0.27350   1.00
O2       0.66180    0.27350    0.27350   1.00
O2       0.77350    0.22650    0.33820   1.00
O2       0.83820    0.22650    0.27350   1.00
O2       0.77350    0.16180    0.27350   1.00
O2       0.77350    0.33820    0.22650   1.00
O2       0.83820    0.27350    0.22650   1.00
O2       0.77350    0.27350    0.16180   1.00
O2       0.66180    0.22650    0.22650   1.00
O2       0.72650    0.16180    0.22650   1.00
O2       0.72650    0.22650    0.16180   1.00
C1       0.75000    0.25000    0.35520   1.00
C1       0.75000    0.35520    0.25000   1.00
C1       0.64480    0.25000    0.25000   1.00
C1       0.85520    0.25000    0.25000   1.00
C1       0.75000    0.14480    0.25000   1.00
C1       0.75000    0.25000    0.14480   1.00
O1       0.25000    0.25000    0.25000   1.00
Zn1      0.28280    0.21720    0.21720   1.00
Zn1      0.21720    0.28280    0.21720   1.00
Zn1      0.21720    0.21720    0.28280   1.00
Zn1      0.28280    0.28280    0.28280   1.00
O2       0.27350    0.22650    0.16180   1.00
O2       0.27350    0.16180    0.22650   1.00
O2       0.33820    0.22650    0.22650   1.00
O2       0.22650    0.27350    0.16180   1.00
O2       0.16180    0.27350    0.22650   1.00
O2       0.22650    0.33820    0.22650   1.00
O2       0.22650    0.16180    0.27350   1.00
O2       0.16180    0.22650    0.27350   1.00
O2       0.22650    0.22650    0.33820   1.00
O2       0.33820    0.27350    0.27350   1.00
O2       0.27350    0.33820    0.27350   1.00
O2       0.27350    0.27350    0.33820   1.00
C1       0.25000    0.25000    0.14480   1.00
C1       0.25000    0.14480    0.25000   1.00
C1       0.35520    0.25000    0.25000   1.00
C1       0.14480    0.25000    0.25000   1.00
C1       0.25000    0.35520    0.25000   1.00
C1       0.25000    0.25000    0.35520   1.00
O1       0.75000    0.75000    0.25000   1.00
Zn1      0.78280    0.71720    0.21720   1.00
Zn1      0.71720    0.78280    0.21720   1.00
Zn1      0.71720    0.71720    0.28280   1.00
Zn1      0.78280    0.78280    0.28280   1.00
O2       0.77350    0.72650    0.16180   1.00
O2       0.77350    0.66180    0.22650   1.00
O2       0.83820    0.72650    0.22650   1.00
O2       0.72650    0.77350    0.16180   1.00
O2       0.66180    0.77350    0.22650   1.00
O2       0.72650    0.83820    0.22650   1.00
O2       0.72650    0.66180    0.27350   1.00
O2       0.66180    0.72650    0.27350   1.00
O2       0.72650    0.72650    0.33820   1.00
O2       0.83820    0.77350    0.27350   1.00
O2       0.77350    0.83820    0.27350   1.00
O2       0.77350    0.77350    0.33820   1.00
C1       0.75000    0.75000    0.14480   1.00
C1       0.75000    0.64480    0.25000   1.00
C1       0.85520    0.75000    0.25000   1.00
C1       0.64480    0.75000    0.25000   1.00
C1       0.75000    0.85520    0.25000   1.00
C1       0.75000    0.75000    0.35520   1.00
O1       0.75000    0.25000    0.75000   1.00
Zn1      0.78280    0.21720    0.71720   1.00
Zn1      0.71720    0.28280    0.71720   1.00
Zn1      0.71720    0.21720    0.78280   1.00
Zn1      0.78280    0.28280    0.78280   1.00
O2       0.77350    0.22650    0.66180   1.00
O2       0.77350    0.16180    0.72650   1.00
O2       0.83820    0.22650    0.72650   1.00
O2       0.72650    0.27350    0.66180   1.00
O2       0.66180    0.27350    0.72650   1.00
O2       0.72650    0.33820    0.72650   1.00
O2       0.72650    0.16180    0.77350   1.00
O2       0.66180    0.22650    0.77350   1.00
O2       0.72650    0.22650    0.83820   1.00
O2       0.83820    0.27350    0.77350   1.00
O2       0.77350    0.33820    0.77350   1.00
O2       0.77350    0.27350    0.83820   1.00
C1       0.75000    0.25000    0.64480   1.00
C1       0.75000    0.14480    0.75000   1.00
C1       0.85520    0.25000    0.75000   1.00
C1       0.64480    0.25000    0.75000   1.00
C1       0.75000    0.35520    0.75000   1.00
C1       0.75000    0.25000    0.85520   1.00
O1       0.25000    0.75000    0.75000   1.00
Zn1      0.28280    0.71720    0.71720   1.00
Zn1      0.21720    0.78280    0.71720   1.00
Zn1      0.21720    0.71720    0.78280   1.00
Zn1      0.28280    0.78280    0.78280   1.00
O2       0.27350    0.72650    0.66180   1.00
O2       0.27350    0.66180    0.72650   1.00
O2       0.33820    0.72650    0.72650   1.00
O2       0.22650    0.77350    0.66180   1.00
O2       0.16180    0.77350    0.72650   1.00
O2       0.22650    0.83820    0.72650   1.00
O2       0.22650    0.66180    0.77350   1.00
O2       0.16180    0.72650    0.77350   1.00
O2       0.22650    0.72650    0.83820   1.00
O2       0.33820    0.77350    0.77350   1.00
O2       0.27350    0.83820    0.77350   1.00
O2       0.27350    0.77350    0.83820   1.00
C1       0.25000    0.75000    0.64480   1.00
C1       0.25000    0.64480    0.75000   1.00
C1       0.35520    0.75000    0.75000   1.00
C1       0.14480    0.75000    0.75000   1.00
C1       0.25000    0.85520    0.75000   1.00
C1       0.25000    0.75000    0.85520   1.00
O1       1.00000    1.00000    1.00000   1.00
Zn1      0.96720    1.03280    1.03280   1.00
Zn1      1.03280    0.96720    1.03280   1.00
Zn1      1.03280    1.03280    0.96720   1.00
Zn1      0.96720    0.96720    0.96720   1.00
O2       0.97650    1.02350    1.08820   1.00
O2       0.97650    1.08820    1.02350   1.00
O2       0.91180    1.02350    1.02350   1.00
O2       1.02350    0.97650    1.08820   1.00
O2       1.08820    0.97650    1.02350   1.00
O2       1.02350    0.91180    1.02350   1.00
O2       1.02350    1.08820    0.97650   1.00
O2       1.08820    1.02350    0.97650   1.00
O2       1.02350    1.02350    0.91180   1.00
O2       0.91180    0.97650    0.97650   1.00
O2       0.97650    0.91180    0.97650   1.00
O2       0.97650    0.97650    0.91180   1.00
C1       1.00000    1.00000    1.10520   1.00
C1       1.00000    1.10520    1.00000   1.00
C1       0.89480    1.00000    1.00000   1.00
C1       1.10520    1.00000    1.00000   1.00
C1       1.00000    0.89480    1.00000   1.00
C1       1.00000    1.00000    0.89480   1.00
O1       0.50000    0.50000    1.00000   1.00
Zn1      0.46720    0.53280    1.03280   1.00
Zn1      0.53280    0.46720    1.03280   1.00
Zn1      0.53280    0.53280    0.96720   1.00
Zn1      0.46720    0.46720    0.96720   1.00
O2       0.47650    0.52350    1.08820   1.00
O2       0.47650    0.58820    1.02350   1.00
O2       0.41180    0.52350    1.02350   1.00
O2       0.52350    0.47650    1.08820   1.00
O2       0.58820    0.47650    1.02350   1.00
O2       0.52350    0.41180    1.02350   1.00
O2       0.52350    0.58820    0.97650   1.00
O2       0.58820    0.52350    0.97650   1.00
O2       0.52350    0.52350    0.91180   1.00
O2       0.41180    0.47650    0.97650   1.00
O2       0.47650    0.41180    0.97650   1.00
O2       0.47650    0.47650    0.91180   1.00
C1       0.50000    0.50000    1.10520   1.00
C1       0.50000    0.60520    1.00000   1.00
C1       0.39480    0.50000    1.00000   1.00
C1       0.60520    0.50000    1.00000   1.00
C1       0.50000    0.39480    1.00000   1.00
C1       0.50000    0.50000    0.89480   1.00
O1       0.50000    1.00000    0.50000   1.00
Zn1      0.46720    1.03280    0.53280   1.00
Zn1      0.53280    0.96720    0.53280   1.00
Zn1      0.53280    1.03280    0.46720   1.00
Zn1      0.46720    0.96720    0.46720   1.00
O2       0.47650    1.02350    0.58820   1.00
O2       0.47650    1.08820    0.52350   1.00
O2       0.41180    1.02350    0.52350   1.00
O2       0.52350    0.97650    0.58820   1.00
O2       0.58820    0.97650    0.52350   1.00
O2       0.52350    0.91180    0.52350   1.00
O2       0.52350    1.08820    0.47650   1.00
O2       0.58820    1.02350    0.47650   1.00
O2       0.52350    1.02350    0.41180   1.00
O2       0.41180    0.97650    0.47650   1.00
O2       0.47650    0.91180    0.47650   1.00
O2       0.47650    0.97650    0.41180   1.00
C1       0.50000    1.00000    0.60520   1.00
C1       0.50000    1.10520    0.50000   1.00
C1       0.39480    1.00000    0.50000   1.00
C1       0.60520    1.00000    0.50000   1.00
C1       0.50000    0.89480    0.50000   1.00
C1       0.50000    1.00000    0.39480   1.00
O1       1.00000    0.50000    0.50000   1.00
Zn1      0.96720    0.53280    0.53280   1.00
Zn1      1.03280    0.46720    0.53280   1.00
Zn1      1.03280    0.53280    0.46720   1.00
Zn1      0.96720    0.46720    0.46720   1.00
O2       0.97650    0.52350    0.58820   1.00
O2       0.97650    0.58820    0.52350   1.00
O2       0.91180    0.52350    0.52350   1.00
O2       1.02350    0.47650    0.58820   1.00
O2       1.08820    0.47650    0.52350   1.00
O2       1.02350    0.41180    0.52350   1.00
O2       1.02350    0.58820    0.47650   1.00
O2       1.08820    0.52350    0.47650   1.00
O2       1.02350    0.52350    0.41180   1.00
O2       0.91180    0.47650    0.47650   1.00
O2       0.97650    0.41180    0.47650   1.00
O2       0.97650    0.47650    0.41180   1.00
C1       1.00000    0.50000    0.60520   1.00
C1       1.00000    0.60520    0.50000   1.00
C1       0.89480    0.50000    0.50000   1.00
C1       1.10520    0.50000    0.50000   1.00
C1       1.00000    0.39480    0.50000   1.00
C1       1.00000    0.50000    0.39480   1.00
O1       0.50000    0.50000    0.50000   1.00
Zn1      0.53280    0.46720    0.46720   1.00
Zn1      0.46720    0.53280    0.46720   1.00
Zn1      0.46720    0.46720    0.53280   1.00
Zn1      0.53280    0.53280    0.53280   1.00
O2       0.52350    0.47650    0.41180   1.00
O2       0.52350    0.41180    0.47650   1.00
O2       0.58820    0.47650    0.47650   1.00
O2       0.47650    0.52350    0.41180   1.00
O2       0.41180    0.52350    0.47650   1.00
O2       0.47650    0.58820    0.47650   1.00
O2       0.47650    0.41180    0.52350   1.00
O2       0.41180    0.47650    0.52350   1.00
O2       0.47650    0.47650    0.58820   1.00
O2       0.58820    0.52350    0.52350   1.00
O2       0.52350    0.58820    0.52350   1.00
O2       0.52350    0.52350    0.58820   1.00
C1       0.50000    0.50000    0.39480   1.00
C1       0.50000    0.39480    0.50000   1.00
C1       0.60520    0.50000    0.50000   1.00
C1       0.39480    0.50000    0.50000   1.00
C1       0.50000    0.60520    0.50000   1.00
C1       0.50000    0.50000    0.60520   1.00
O1       1.00000    1.00000    0.50000   1.00
Zn1      1.03280    0.96720    0.46720   1.00
Zn1      0.96720    1.03280    0.46720   1.00
Zn1      0.96720    0.96720    0.53280   1.00
Zn1      1.03280    1.03280    0.53280   1.00
O2       1.02350    0.97650    0.41180   1.00
O2       1.02350    0.91180    0.47650   1.00
O2       1.08820    0.97650    0.47650   1.00
O2       0.97650    1.02350    0.41180   1.00
O2       0.91180    1.02350    0.47650   1.00
O2       0.97650    1.08820    0.47650   1.00
O2       0.97650    0.91180    0.52350   1.00
O2       0.91180    0.97650    0.52350   1.00
O2       0.97650    0.97650    0.58820   1.00
O2       1.08820    1.02350    0.52350   1.00
O2       1.02350    1.08820    0.52350   1.00
O2       1.02350    1.02350    0.58820   1.00
C1       1.00000    1.00000    0.39480   1.00
C1       1.00000    0.89480    0.50000   1.00
C1       1.10520    1.00000    0.50000   1.00
C1       0.89480    1.00000    0.50000   1.00
C1       1.00000    1.10520    0.50000   1.00
C1       1.00000    1.00000    0.60520   1.00
O1       1.00000    0.50000    1.00000   1.00
Zn1      1.03280    0.46720    0.96720   1.00
Zn1      0.96720    0.53280    0.96720   1.00
Zn1      0.96720    0.46720    1.03280   1.00
Zn1      1.03280    0.53280    1.03280   1.00
O2       1.02350    0.47650    0.91180   1.00
O2       1.02350    0.41180    0.97650   1.00
O2       1.08820    0.47650    0.97650   1.00
O2       0.97650    0.52350    0.91180   1.00
O2       0.91180    0.52350    0.97650   1.00
O2       0.97650    0.58820    0.97650   1.00
O2       0.97650    0.41180    1.02350   1.00
O2       0.91180    0.47650    1.02350   1.00
O2       0.97650    0.47650    1.08820   1.00
O2       1.08820    0.52350    1.02350   1.00
O2       1.02350    0.58820    1.02350   1.00
O2       1.02350    0.52350    1.08820   1.00
C1       1.00000    0.50000    0.89480   1.00
C1       1.00000    0.39480    1.00000   1.00
C1       1.10520    0.50000    1.00000   1.00
C1       0.89480    0.50000    1.00000   1.00
C1       1.00000    0.60520    1.00000   1.00
C1       1.00000    0.50000    1.10520   1.00
O1       0.50000    1.00000    1.00000   1.00
Zn1      0.53280    0.96720    0.96720   1.00
Zn1      0.46720    1.03280    0.96720   1.00
Zn1      0.46720    0.96720    1.03280   1.00
Zn1      0.53280    1.03280    1.03280   1.00
O2       0.52350    0.97650    0.91180   1.00
O2       0.52350    0.91180    0.97650   1.00
O2       0.58820    0.97650    0.97650   1.00
O2       0.47650    1.02350    0.91180   1.00
O2       0.41180    1.02350    0.97650   1.00
O2       0.47650    1.08820    0.97650   1.00
O2       0.47650    0.91180    1.02350   1.00
O2       0.41180    0.97650    1.02350   1.00
O2       0.47650    0.97650    1.08820   1.00
O2       0.58820    1.02350    1.02350   1.00
O2       0.52350    1.08820    1.02350   1.00
O2       0.52350    1.02350    1.08820   1.00
C1       0.50000    1.00000    0.89480   1.00
C1       0.50000    0.89480    1.00000   1.00
C1       0.60520    1.00000    1.00000   1.00
C1       0.39480    1.00000    1.00000   1.00
C1       0.50000    1.10520    1.00000   1.00
C1       0.50000    1.00000    1.10520   1.00
C4       0.75117    0.74719    1.02084   1.00
C4       0.75049    0.74745    0.97912   1.00
C3       0.74529    0.71310    1.04364   1.00
C3       0.74037    0.71447    0.95616   1.00
C3       0.75747    0.78296    1.04123   1.00
C3       0.76053    0.78244    0.95886   1.00
C2       0.75105    0.74943    1.10512   1.00
C2       0.74895    0.75057    0.89488   1.00
C3       0.74500    0.71419    1.08462   1.00
C3       0.73996    0.71586    0.91519   1.00
C3       0.75781    0.78333    1.08258   1.00
C3       0.75832    0.78369    0.91762   1.00
H1       0.74117    0.68645    1.03115   1.00
H1       0.73275    0.68854    0.96852   1.00
C5       0.76357    0.81811    1.02020   1.00
C5       0.77238    0.81608    0.97980   1.00
H1       0.74031    0.68866    1.09955   1.00
H1       0.73274    0.69101    0.90010   1.00
H1       0.76344    0.80900    1.09680   1.00
H1       0.76317    0.80962    0.90368   1.00
O3       0.76312    0.85332    1.03961   1.00
O3       0.78948    0.84739    0.96099   1.00
Si1      0.72264    0.87830    1.04247   1.00
Si1      0.83638    0.84647    0.95279   1.00
C6       0.73957    0.91413    1.07538   1.00
C6       0.71365    0.89841    0.99598   1.00
C6       0.68351    0.85145    1.06253   1.00
C6       0.86283    0.80449    0.96693   1.00
C6       0.83942    0.85223    0.90198   1.00
C6       0.85649    0.88836    0.97477   1.00
C6       0.76224    0.89855    1.11194   1.00
H2       0.76131    0.92955    1.05791   1.00
C6       0.71149    0.94656    1.09147   1.00
H2       0.74295    0.89967    0.98358   1.00
C6       0.68867    0.87428    0.96634   1.00
C6       0.69739    0.94101    0.99336   1.00
H2       0.69692    0.83829    1.08831   1.00
C6       0.64746    0.87513    1.07772   1.00
C6       0.66499    0.81705    1.03849   1.00
C6       0.86106    0.79173    1.01071   1.00
C6       0.85921    0.76618    0.94225   1.00
H2       0.89297    0.81359    0.96212   1.00
H2       0.82827    0.82470    0.89051   1.00
C6       0.81279    0.88461    0.88378   1.00
C6       0.88095    0.85786    0.88393   1.00
H2       0.85078    0.91161    0.95375   1.00
C6       0.83685    0.90231    1.01336   1.00
C6       0.90154    0.88911    0.98244   1.00
H2       0.78688    0.88019    1.10346   1.00
H2       0.74320    0.88137    1.13090   1.00
H2       0.77425    0.92257    1.12917   1.00
H2       0.72765    0.97369    1.09608   1.00
H2       0.68748    0.95303    1.07178   1.00
H2       0.69883    0.93870    1.11964   1.00
H2       0.69221    0.88564    0.93672   1.00
H2       0.69750    0.84380    0.96532   1.00
H2       0.65767    0.87572    0.97352   1.00
H2       0.71626    0.96163    1.00862   1.00
H2       0.69596    0.95104    0.96308   1.00
H2       0.66798    0.94287    1.00550   1.00
H2       0.63612    0.89455    1.05514   1.00
H2       0.62363    0.85605    1.08708   1.00
H2       0.65488    0.89229    1.10332   1.00
H2       0.64188    0.82712    1.01902   1.00
H2       0.68589    0.80140    1.02068   1.00
H2       0.65192    0.79567    1.05828   1.00
H2       0.83515    0.77439    1.01688   1.00
H2       0.88632    0.77368    1.01809   1.00
H2       0.86133    0.81658    1.03048   1.00
H2       0.88123    0.74489    0.95125   1.00
H2       0.83092    0.75222    0.94574   1.00
H2       0.86401    0.77138    0.91122   1.00
H2       0.81165    0.88155    0.85202   1.00
H2       0.78279    0.88232    0.89435   1.00
H2       0.82343    0.91389    0.89035   1.00
H2       0.90136    0.83567    0.89416   1.00
H2       0.87969    0.85537    0.85212   1.00
H2       0.89286    0.88660    0.89085   1.00
H2       0.83927    0.88067    1.03656   1.00
H2       0.84952    0.92963    1.02381   1.00
H2       0.80605    0.90773    1.00834   1.00
H2       0.91119    0.91846    0.99044   1.00
H2       0.90965    0.86947    1.00622   1.00
H2       0.91806    0.88077    0.95657   1.00
C4       0.74719    1.02084    0.75117   1.00
C4       0.74745    0.97912    0.75049   1.00
C3       0.71310    1.04364    0.74529   1.00
C3       0.71447    0.95616    0.74037   1.00
C3       0.78296    1.04123    0.75747   1.00
C3       0.78244    0.95886    0.76053   1.00
C2       0.74943    1.10512    0.75105   1.00
C2       0.75057    0.89488    0.74895   1.00
C3       0.71419    1.08462    0.74500   1.00
C3       0.71586    0.91519    0.73996   1.00
C3       0.78333    1.08258    0.75781   1.00
C3       0.78369    0.91762    0.75832   1.00
H1       0.68645    1.03115    0.74117   1.00
H1       0.68854    0.96852    0.73275   1.00
C5       0.81811    1.02020    0.76357   1.00
C5       0.81608    0.97980    0.77238   1.00
H1       0.68866    1.09955    0.74031   1.00
H1       0.69101    0.90010    0.73274   1.00
H1       0.80900    1.09680    0.76344   1.00
H1       0.80962    0.90368    0.76317   1.00
O3       0.85332    1.03961    0.76312   1.00
O3       0.84739    0.96099    0.78948   1.00
Si1      0.87830    1.04247    0.72264   1.00
Si1      0.84647    0.95279    0.83638   1.00
C6       0.91413    1.07538    0.73957   1.00
C6       0.89841    0.99598    0.71365   1.00
C6       0.85145    1.06253    0.68351   1.00
C6       0.80449    0.96693    0.86283   1.00
C6       0.85223    0.90198    0.83942   1.00
C6       0.88836    0.97477    0.85649   1.00
C6       0.89855    1.11194    0.76224   1.00
H2       0.92955    1.05791    0.76131   1.00
C6       0.94656    1.09147    0.71149   1.00
H2       0.89967    0.98358    0.74295   1.00
C6       0.87428    0.96634    0.68867   1.00
C6       0.94101    0.99336    0.69739   1.00
H2       0.83829    1.08831    0.69692   1.00
C6       0.87513    1.07772    0.64746   1.00
C6       0.81705    1.03849    0.66499   1.00
C6       0.79173    1.01071    0.86106   1.00
C6       0.76618    0.94225    0.85921   1.00
H2       0.81359    0.96212    0.89297   1.00
H2       0.82470    0.89051    0.82827   1.00
C6       0.88461    0.88378    0.81279   1.00
C6       0.85786    0.88393    0.88095   1.00
H2       0.91161    0.95375    0.85078   1.00
C6       0.90231    1.01336    0.83685   1.00
C6       0.88911    0.98244    0.90154   1.00
H2       0.88019    1.10346    0.78688   1.00
H2       0.88137    1.13090    0.74320   1.00
H2       0.92257    1.12917    0.77425   1.00
H2       0.97369    1.09608    0.72765   1.00
H2       0.95303    1.07178    0.68748   1.00
H2       0.93870    1.11964    0.69883   1.00
H2       0.88564    0.93672    0.69221   1.00
H2       0.84380    0.96532    0.69750   1.00
H2       0.87572    0.97352    0.65767   1.00
H2       0.96163    1.00862    0.71626   1.00
H2       0.95104    0.96308    0.69596   1.00
H2       0.94287    1.00550    0.66798   1.00
H2       0.89455    1.05514    0.63612   1.00
H2       0.85605    1.08708    0.62363   1.00
H2       0.89229    1.10332    0.65488   1.00
H2       0.82712    1.01902    0.64188   1.00
H2       0.80140    1.02068    0.68589   1.00
H2       0.79567    1.05828    0.65192   1.00
H2       0.77439    1.01688    0.83515   1.00
H2       0.77368    1.01809    0.88632   1.00
H2       0.81658    1.03048    0.86133   1.00
H2       0.74489    0.95125    0.88123   1.00
H2       0.75222    0.94574    0.83092   1.00
H2       0.77138    0.91122    0.86401   1.00
H2       0.88155    0.85202    0.81165   1.00
H2       0.88232    0.89435    0.78279   1.00
H2       0.91389    0.89035    0.82343   1.00
H2       0.83567    0.89416    0.90136   1.00
H2       0.85537    0.85212    0.87969   1.00
H2       0.88660    0.89085    0.89286   1.00
H2       0.88067    1.03656    0.83927   1.00
H2       0.92963    1.02381    0.84952   1.00
H2       0.90773    1.00834    0.80605   1.00
H2       0.91846    0.99044    0.91119   1.00
H2       0.86947    1.00622    0.90965   1.00
H2       0.88077    0.95657    0.91806   1.00
C4       0.47916    0.75117    0.75281   1.00
C4       0.52088    0.75049    0.75255   1.00
C3       0.45636    0.74529    0.78690   1.00
C3       0.54384    0.74037    0.78553   1.00
C3       0.45877    0.75747    0.71704   1.00
C3       0.54114    0.76053    0.71756   1.00
C2       0.39488    0.75105    0.75057   1.00
C2       0.60512    0.74895    0.74943   1.00
C3       0.41538    0.74500    0.78581   1.00
C3       0.58481    0.73996    0.78414   1.00
C3       0.41742    0.75781    0.71667   1.00
C3       0.58238    0.75832    0.71631   1.00
H1       0.46885    0.74117    0.81355   1.00
H1       0.53148    0.73275    0.81146   1.00
C5       0.47980    0.76357    0.68189   1.00
C5       0.52020    0.77238    0.68392   1.00
H1       0.40045    0.74031    0.81134   1.00
H1       0.59990    0.73274    0.80899   1.00
H1       0.40320    0.76344    0.69100   1.00
H1       0.59632    0.76317    0.69038   1.00
O3       0.46039    0.76312    0.64668   1.00
O3       0.53901    0.78948    0.65261   1.00
Si1      0.45753    0.72264    0.62170   1.00
Si1      0.54721    0.83638    0.65353   1.00
C6       0.42462    0.73957    0.58587   1.00
C6       0.50402    0.71365    0.60159   1.00
C6       0.43747    0.68351    0.64855   1.00
C6       0.53307    0.86283    0.69551   1.00
C6       0.59802    0.83942    0.64777   1.00
C6       0.52523    0.85649    0.61164   1.00
C6       0.38806    0.76224    0.60145   1.00
H2       0.44209    0.76131    0.57045   1.00
C6       0.40853    0.71149    0.55344   1.00
H2       0.51642    0.74295    0.60033   1.00
C6       0.53366    0.68867    0.62572   1.00
C6       0.50664    0.69739    0.55899   1.00
H2       0.41169    0.69692    0.66171   1.00
C6       0.42228    0.64746    0.62487   1.00
C6       0.46151    0.66499    0.68295   1.00
C6       0.48929    0.86106    0.70827   1.00
C6       0.55775    0.85921    0.73382   1.00
H2       0.53788    0.89297    0.68641   1.00
H2       0.60949    0.82827    0.67530   1.00
C6       0.61622    0.81279    0.61539   1.00
C6       0.61607    0.88095    0.64214   1.00
H2       0.54625    0.85078    0.58839   1.00
C6       0.48664    0.83685    0.59769   1.00
C6       0.51756    0.90154    0.61089   1.00
H2       0.39654    0.78688    0.61981   1.00
H2       0.36910    0.74320    0.61863   1.00
H2       0.37083    0.77425    0.57743   1.00
H2       0.40392    0.72765    0.52631   1.00
H2       0.42822    0.68748    0.54697   1.00
H2       0.38036    0.69883    0.56130   1.00
H2       0.56328    0.69221    0.61436   1.00
H2       0.53468    0.69750    0.65620   1.00
H2       0.52648    0.65767    0.62428   1.00
H2       0.49138    0.71626    0.53837   1.00
H2       0.53692    0.69596    0.54896   1.00
H2       0.49450    0.66798    0.55713   1.00
H2       0.44486    0.63612    0.60545   1.00
H2       0.41292    0.62363    0.64395   1.00
H2       0.39668    0.65488    0.60771   1.00
H2       0.48098    0.64188    0.67288   1.00
H2       0.47932    0.68589    0.69860   1.00
H2       0.44172    0.65192    0.70433   1.00
H2       0.48312    0.83515    0.72561   1.00
H2       0.48191    0.88632    0.72632   1.00
H2       0.46952    0.86133    0.68342   1.00
H2       0.54875    0.88123    0.75511   1.00
H2       0.55426    0.83092    0.74778   1.00
H2       0.58878    0.86401    0.72862   1.00
H2       0.64798    0.81165    0.61845   1.00
H2       0.60565    0.78279    0.61768   1.00
H2       0.60965    0.82343    0.58611   1.00
H2       0.60584    0.90136    0.66433   1.00
H2       0.64788    0.87969    0.64463   1.00
H2       0.60915    0.89286    0.61340   1.00
H2       0.46344    0.83927    0.61933   1.00
H2       0.47619    0.84952    0.57037   1.00
H2       0.49166    0.80605    0.59227   1.00
H2       0.50956    0.91119    0.58154   1.00
H2       0.49378    0.90965    0.63053   1.00
H2       0.54343    0.91806    0.61923   1.00
C4       1.02084    0.75117    0.74719   1.00
C4       0.97912    0.75049    0.74745   1.00
C3       1.04364    0.74529    0.71310   1.00
C3       0.95616    0.74037    0.71447   1.00
C3       1.04123    0.75747    0.78296   1.00
C3       0.95886    0.76053    0.78244   1.00
C2       1.10512    0.75105    0.74943   1.00
C2       0.89488    0.74895    0.75057   1.00
C3       1.08462    0.74500    0.71419   1.00
C3       0.91519    0.73996    0.71586   1.00
C3       1.08258    0.75781    0.78333   1.00
C3       0.91762    0.75832    0.78369   1.00
H1       1.03115    0.74117    0.68645   1.00
H1       0.96852    0.73275    0.68854   1.00
C5       1.02020    0.76357    0.81811   1.00
C5       0.97980    0.77238    0.81608   1.00
H1       1.09955    0.74031    0.68866   1.00
H1       0.90010    0.73274    0.69101   1.00
H1       1.09680    0.76344    0.80900   1.00
H1       0.90368    0.76317    0.80962   1.00
O3       1.03961    0.76312    0.85332   1.00
O3       0.96099    0.78948    0.84739   1.00
Si1      1.04247    0.72264    0.87830   1.00
Si1      0.95279    0.83638    0.84647   1.00
C6       1.07538    0.73957    0.91413   1.00
C6       0.99598    0.71365    0.89841   1.00
C6       1.06253    0.68351    0.85145   1.00
C6       0.96693    0.86283    0.80449   1.00
C6       0.90198    0.83942    0.85223   1.00
C6       0.97477    0.85649    0.88836   1.00
C6       1.11194    0.76224    0.89855   1.00
H2       1.05791    0.76131    0.92955   1.00
C6       1.09147    0.71149    0.94656   1.00
H2       0.98358    0.74295    0.89967   1.00
C6       0.96634    0.68867    0.87428   1.00
C6       0.99336    0.69739    0.94101   1.00
H2       1.08831    0.69692    0.83829   1.00
C6       1.07772    0.64746    0.87513   1.00
C6       1.03849    0.66499    0.81705   1.00
C6       1.01071    0.86106    0.79173   1.00
C6       0.94225    0.85921    0.76618   1.00
H2       0.96212    0.89297    0.81359   1.00
H2       0.89051    0.82827    0.82470   1.00
C6       0.88378    0.81279    0.88461   1.00
C6       0.88393    0.88095    0.85786   1.00
H2       0.95375    0.85078    0.91161   1.00
C6       1.01336    0.83685    0.90231   1.00
C6       0.98244    0.90154    0.88911   1.00
H2       1.10346    0.78688    0.88019   1.00
H2       1.13090    0.74320    0.88137   1.00
H2       1.12917    0.77425    0.92257   1.00
H2       1.09608    0.72765    0.97369   1.00
H2       1.07178    0.68748    0.95303   1.00
H2       1.11964    0.69883    0.93870   1.00
H2       0.93672    0.69221    0.88564   1.00
H2       0.96532    0.69750    0.84380   1.00
H2       0.97352    0.65767    0.87572   1.00
H2       1.00862    0.71626    0.96163   1.00
H2       0.96308    0.69596    0.95104   1.00
H2       1.00550    0.66798    0.94287   1.00
H2       1.05514    0.63612    0.89455   1.00
H2       1.08708    0.62363    0.85605   1.00
H2       1.10332    0.65488    0.89229   1.00
H2       1.01902    0.64188    0.82712   1.00
H2       1.02068    0.68589    0.80140   1.00
H2       1.05828    0.65192    0.79567   1.00
H2       1.01688    0.83515    0.77439   1.00
H2       1.01809    0.88632    0.77368   1.00
H2       1.03048    0.86133    0.81658   1.00
H2       0.95125    0.88123    0.74489   1.00
H2       0.94574    0.83092    0.75222   1.00
H2       0.91122    0.86401    0.77138   1.00
H2       0.85202    0.81165    0.88155   1.00
H2       0.89435    0.78279    0.88232   1.00
H2       0.89035    0.82343    0.91389   1.00
H2       0.89416    0.90136    0.83567   1.00
H2       0.85212    0.87969    0.85537   1.00
H2       0.89085    0.89286    0.88660   1.00
H2       1.03656    0.83927    0.88067   1.00
H2       1.02381    0.84952    0.92963   1.00
H2       1.00834    0.80605    0.90773   1.00
H2       0.99044    0.91119    0.91846   1.00
H2       1.00622    0.90965    0.86947   1.00
H2       0.95657    0.91806    0.88077   1.00
C4       0.75281    0.47916    0.75117   1.00
C4       0.75255    0.52088    0.75049   1.00
C3       0.78690    0.45636    0.74529   1.00
C3       0.78553    0.54384    0.74037   1.00
C3       0.71704    0.45877    0.75747   1.00
C3       0.71756    0.54114    0.76053   1.00
C2       0.75057    0.39488    0.75105   1.00
C2       0.74943    0.60512    0.74895   1.00
C3       0.78581    0.41538    0.74500   1.00
C3       0.78414    0.58481    0.73996   1.00
C3       0.71667    0.41742    0.75781   1.00
C3       0.71631    0.58238    0.75832   1.00
H1       0.81355    0.46885    0.74117   1.00
H1       0.81146    0.53148    0.73275   1.00
C5       0.68189    0.47980    0.76357   1.00
C5       0.68392    0.52020    0.77238   1.00
H1       0.81134    0.40045    0.74031   1.00
H1       0.80899    0.59990    0.73274   1.00
H1       0.69100    0.40320    0.76344   1.00
H1       0.69038    0.59632    0.76317   1.00
O3       0.64668    0.46039    0.76312   1.00
O3       0.65261    0.53901    0.78948   1.00
Si1      0.62170    0.45753    0.72264   1.00
Si1      0.65353    0.54721    0.83638   1.00
C6       0.58587    0.42462    0.73957   1.00
C6       0.60159    0.50402    0.71365   1.00
C6       0.64855    0.43747    0.68351   1.00
C6       0.69551    0.53307    0.86283   1.00
C6       0.64777    0.59802    0.83942   1.00
C6       0.61164    0.52523    0.85649   1.00
C6       0.60145    0.38806    0.76224   1.00
H2       0.57045    0.44209    0.76131   1.00
C6       0.55344    0.40853    0.71149   1.00
H2       0.60033    0.51642    0.74295   1.00
C6       0.62572    0.53366    0.68867   1.00
C6       0.55899    0.50664    0.69739   1.00
H2       0.66171    0.41169    0.69692   1.00
C6       0.62487    0.42228    0.64746   1.00
C6       0.68295    0.46151    0.66499   1.00
C6       0.70827    0.48929    0.86106   1.00
C6       0.73382    0.55775    0.85921   1.00
H2       0.68641    0.53788    0.89297   1.00
H2       0.67530    0.60949    0.82827   1.00
C6       0.61539    0.61622    0.81279   1.00
C6       0.64214    0.61607    0.88095   1.00
H2       0.58839    0.54625    0.85078   1.00
C6       0.59769    0.48664    0.83685   1.00
C6       0.61089    0.51756    0.90154   1.00
H2       0.61981    0.39654    0.78688   1.00
H2       0.61863    0.36910    0.74320   1.00
H2       0.57743    0.37083    0.77425   1.00
H2       0.52631    0.40392    0.72765   1.00
H2       0.54697    0.42822    0.68748   1.00
H2       0.56130    0.38036    0.69883   1.00
H2       0.61436    0.56328    0.69221   1.00
H2       0.65620    0.53468    0.69750   1.00
H2       0.62428    0.52648    0.65767   1.00
H2       0.53837    0.49138    0.71626   1.00
H2       0.54896    0.53692    0.69596   1.00
H2       0.55713    0.49450    0.66798   1.00
H2       0.60545    0.44486    0.63612   1.00
H2       0.64395    0.41292    0.62363   1.00
H2       0.60771    0.39668    0.65488   1.00
H2       0.67288    0.48098    0.64188   1.00
H2       0.69860    0.47932    0.68589   1.00
H2       0.70433    0.44172    0.65192   1.00
H2       0.72561    0.48312    0.83515   1.00
H2       0.72632    0.48191    0.88632   1.00
H2       0.68342    0.46952    0.86133   1.00
H2       0.75511    0.54875    0.88123   1.00
H2       0.74778    0.55426    0.83092   1.00
H2       0.72862    0.58878    0.86401   1.00
H2       0.61845    0.64798    0.81165   1.00
H2       0.61768    0.60565    0.78279   1.00
H2       0.58611    0.60965    0.82343   1.00
H2       0.66433    0.60584    0.90136   1.00
H2       0.64463    0.64788    0.87969   1.00
H2       0.61340    0.60915    0.89286   1.00
H2       0.61933    0.46344    0.83927   1.00
H2       0.57037    0.47619    0.84952   1.00
H2       0.59227    0.49166    0.80605   1.00
H2       0.58154    0.50956    0.91119   1.00
H2       0.63053    0.49378    0.90965   1.00
H2       0.61923    0.54343    0.91806   1.00
C4       0.75117    0.75281    0.47916   1.00
C4       0.75049    0.75255    0.52088   1.00
C3       0.74529    0.78690    0.45636   1.00
C3       0.74037    0.78553    0.54384   1.00
C3       0.75747    0.71704    0.45877   1.00
C3       0.76053    0.71756    0.54114   1.00
C2       0.75105    0.75057    0.39488   1.00
C2       0.74895    0.74943    0.60512   1.00
C3       0.74500    0.78581    0.41538   1.00
C3       0.73996    0.78414    0.58481   1.00
C3       0.75781    0.71667    0.41742   1.00
C3       0.75832    0.71631    0.58238   1.00
H1       0.74117    0.81355    0.46885   1.00
H1       0.73275    0.81146    0.53148   1.00
C5       0.76357    0.68189    0.47980   1.00
C5       0.77238    0.68392    0.52020   1.00
H1       0.74031    0.81134    0.40045   1.00
H1       0.73274    0.80899    0.59990   1.00
H1       0.76344    0.69100    0.40320   1.00
H1       0.76317    0.69038    0.59632   1.00
O3       0.76312    0.64668    0.46039   1.00
O3       0.78948    0.65261    0.53901   1.00
Si1      0.72264    0.62170    0.45753   1.00
Si1      0.83638    0.65353    0.54721   1.00
C6       0.73957    0.58587    0.42462   1.00
C6       0.71365    0.60159    0.50402   1.00
C6       0.68351    0.64855    0.43747   1.00
C6       0.86283    0.69551    0.53307   1.00
C6       0.83942    0.64777    0.59802   1.00
C6       0.85649    0.61164    0.52523   1.00
C6       0.76224    0.60145    0.38806   1.00
H2       0.76131    0.57045    0.44209   1.00
C6       0.71149    0.55344    0.40853   1.00
H2       0.74295    0.60033    0.51642   1.00
C6       0.68867    0.62572    0.53366   1.00
C6       0.69739    0.55899    0.50664   1.00
H2       0.69692    0.66171    0.41169   1.00
C6       0.64746    0.62487    0.42228   1.00
C6       0.66499    0.68295    0.46151   1.00
C6       0.86106    0.70827    0.48929   1.00
C6       0.85921    0.73382    0.55775   1.00
H2       0.89297    0.68641    0.53788   1.00
H2       0.82827    0.67530    0.60949   1.00
C6       0.81279    0.61539    0.61622   1.00
C6       0.88095    0.64214    0.61607   1.00
H2       0.85078    0.58839    0.54625   1.00
C6       0.83685    0.59769    0.48664   1.00
C6       0.90154    0.61089    0.51756   1.00
H2       0.78688    0.61981    0.39654   1.00
H2       0.74320    0.61863    0.36910   1.00
H2       0.77425    0.57743    0.37083   1.00
H2       0.72765    0.52631    0.40392   1.00
H2       0.68748    0.54697    0.42822   1.00
H2       0.69883    0.56130    0.38036   1.00
H2       0.69221    0.61436    0.56328   1.00
H2       0.69750    0.65620    0.53468   1.00
H2       0.65767    0.62428    0.52648   1.00
H2       0.71626    0.53837    0.49138   1.00
H2       0.69596    0.54896    0.53692   1.00
H2       0.66798    0.55713    0.49450   1.00
H2       0.63612    0.60545    0.44486   1.00
H2       0.62363    0.64395    0.41292   1.00
H2       0.65488    0.60771    0.39668   1.00
H2       0.64188    0.67288    0.48098   1.00
H2       0.68589    0.69860    0.47932   1.00
H2       0.65192    0.70433    0.44172   1.00
H2       0.83515    0.72561    0.48312   1.00
H2       0.88632    0.72632    0.48191   1.00
H2       0.86133    0.68342    0.46952   1.00
H2       0.88123    0.75511    0.54875   1.00
H2       0.83092    0.74778    0.55426   1.00
H2       0.86401    0.72862    0.58878   1.00
H2       0.81165    0.61845    0.64798   1.00
H2       0.78279    0.61768    0.60565   1.00
H2       0.82343    0.58611    0.60965   1.00
H2       0.90136    0.66433    0.60584   1.00
H2       0.87969    0.64463    0.64788   1.00
H2       0.89286    0.61340    0.60915   1.00
H2       0.83927    0.61933    0.46344   1.00
H2       0.84952    0.57037    0.47619   1.00
H2       0.80605    0.59227    0.49166   1.00
H2       0.91119    0.58154    0.50956   1.00
H2       0.90965    0.63053    0.49378   1.00
H2       0.91806    0.61923    0.54343   1.00
C4       0.25117    0.24719    1.02084   1.00
C4       0.25049    0.24745    0.97912   1.00
C3       0.24529    0.21310    1.04364   1.00
C3       0.24037    0.21447    0.95616   1.00
C3       0.25747    0.28296    1.04123   1.00
C3       0.26053    0.28244    0.95886   1.00
C2       0.25105    0.24943    1.10512   1.00
C2       0.24895    0.25057    0.89488   1.00
C3       0.24500    0.21419    1.08462   1.00
C3       0.23996    0.21586    0.91519   1.00
C3       0.25781    0.28333    1.08258   1.00
C3       0.25832    0.28369    0.91762   1.00
H1       0.24117    0.18645    1.03115   1.00
H1       0.23275    0.18854    0.96852   1.00
C5       0.26357    0.31811    1.02020   1.00
C5       0.27238    0.31608    0.97980   1.00
H1       0.24031    0.18866    1.09955   1.00
H1       0.23274    0.19101    0.90010   1.00
H1       0.26344    0.30900    1.09680   1.00
H1       0.26317    0.30962    0.90368   1.00
O3       0.26312    0.35332    1.03961   1.00
O3       0.28948    0.34739    0.96099   1.00
Si1      0.22264    0.37830    1.04247   1.00
Si1      0.33638    0.34647    0.95279   1.00
C6       0.23957    0.41413    1.07538   1.00
C6       0.21365    0.39841    0.99598   1.00
C6       0.18351    0.35145    1.06253   1.00
C6       0.36283    0.30449    0.96693   1.00
C6       0.33942    0.35223    0.90198   1.00
C6       0.35649    0.38836    0.97477   1.00
C6       0.26224    0.39855    1.11194   1.00
H2       0.26131    0.42955    1.05791   1.00
C6       0.21149    0.44656    1.09147   1.00
H2       0.24295    0.39967    0.98358   1.00
C6       0.18867    0.37428    0.96634   1.00
C6       0.19739    0.44101    0.99336   1.00
H2       0.19692    0.33829    1.08831   1.00
C6       0.14746    0.37513    1.07772   1.00
C6       0.16499    0.31705    1.03849   1.00
C6       0.36106    0.29173    1.01071   1.00
C6       0.35921    0.26618    0.94225   1.00
H2       0.39297    0.31359    0.96212   1.00
H2       0.32827    0.32470    0.89051   1.00
C6       0.31279    0.38461    0.88378   1.00
C6       0.38095    0.35786    0.88393   1.00
H2       0.35078    0.41161    0.95375   1.00
C6       0.33685    0.40231    1.01336   1.00
C6       0.40154    0.38911    0.98244   1.00
H2       0.28688    0.38019    1.10346   1.00
H2       0.24320    0.38137    1.13090   1.00
H2       0.27425    0.42257    1.12917   1.00
H2       0.22765    0.47369    1.09608   1.00
H2       0.18748    0.45303    1.07178   1.00
H2       0.19883    0.43870    1.11964   1.00
H2       0.19221    0.38564    0.93672   1.00
H2       0.19750    0.34380    0.96532   1.00
H2       0.15767    0.37572    0.97352   1.00
H2       0.21626    0.46163    1.00862   1.00
H2       0.19596    0.45104    0.96308   1.00
H2       0.16798    0.44287    1.00550   1.00
H2       0.13612    0.39455    1.05514   1.00
H2       0.12363    0.35605    1.08708   1.00
H2       0.15488    0.39229    1.10332   1.00
H2       0.14188    0.32712    1.01902   1.00
H2       0.18589    0.30140    1.02068   1.00
H2       0.15192    0.29567    1.05828   1.00
H2       0.33515    0.27439    1.01688   1.00
H2       0.38632    0.27368    1.01809   1.00
H2       0.36133    0.31658    1.03048   1.00
H2       0.38123    0.24489    0.95125   1.00
H2       0.33092    0.25222    0.94574   1.00
H2       0.36401    0.27138    0.91122   1.00
H2       0.31165    0.38155    0.85202   1.00
H2       0.28279    0.38232    0.89435   1.00
H2       0.32343    0.41389    0.89035   1.00
H2       0.40136    0.33567    0.89416   1.00
H2       0.37969    0.35537    0.85212   1.00
H2       0.39286    0.38660    0.89085   1.00
H2       0.33927    0.38067    1.03656   1.00
H2       0.34952    0.42963    1.02381   1.00
H2       0.30605    0.40773    1.00834   1.00
H2       0.41119    0.41846    0.99044   1.00
H2       0.40965    0.36947    1.00622   1.00
H2       0.41806    0.38077    0.95657   1.00
C4       0.24719    0.52084    0.75117   1.00
C4       0.24745    0.47912    0.75049   1.00
C3       0.21310    0.54364    0.74529   1.00
C3       0.21447    0.45616    0.74037   1.00
C3       0.28296    0.54123    0.75747   1.00
C3       0.28244    0.45886    0.76053   1.00
C2       0.24943    0.60512    0.75105   1.00
C2       0.25057    0.39488    0.74895   1.00
C3       0.21419    0.58462    0.74500   1.00
C3       0.21586    0.41519    0.73996   1.00
C3       0.28333    0.58258    0.75781   1.00
C3       0.28369    0.41762    0.75832   1.00
H1       0.18645    0.53115    0.74117   1.00
H1       0.18854    0.46852    0.73275   1.00
C5       0.31811    0.52020    0.76357   1.00
C5       0.31608    0.47980    0.77238   1.00
H1       0.18866    0.59955    0.74031   1.00
H1       0.19101    0.40010    0.73274   1.00
H1       0.30900    0.59680    0.76344   1.00
H1       0.30962    0.40368    0.76317   1.00
O3       0.35332    0.53961    0.76312   1.00
O3       0.34739    0.46099    0.78948   1.00
Si1      0.37830    0.54247    0.72264   1.00
Si1      0.34647    0.45279    0.83638   1.00
C6       0.41413    0.57538    0.73957   1.00
C6       0.39841    0.49598    0.71365   1.00
C6       0.35145    0.56253    0.68351   1.00
C6       0.30449    0.46693    0.86283   1.00
C6       0.35223    0.40198    0.83942   1.00
C6       0.38836    0.47477    0.85649   1.00
C6       0.39855    0.61194    0.76224   1.00
H2       0.42955    0.55791    0.76131   1.00
C6       0.44656    0.59147    0.71149   1.00
H2       0.39967    0.48358    0.74295   1.00
C6       0.37428    0.46634    0.68867   1.00
C6       0.44101    0.49336    0.69739   1.00
H2       0.33829    0.58831    0.69692   1.00
C6       0.37513    0.57772    0.64746   1.00
C6       0.31705    0.53849    0.66499   1.00
C6       0.29173    0.51071    0.86106   1.00
C6       0.26618    0.44225    0.85921   1.00
H2       0.31359    0.46212    0.89297   1.00
H2       0.32470    0.39051    0.82827   1.00
C6       0.38461    0.38378    0.81279   1.00
C6       0.35786    0.38393    0.88095   1.00
H2       0.41161    0.45375    0.85078   1.00
C6       0.40231    0.51336    0.83685   1.00
C6       0.38911    0.48244    0.90154   1.00
H2       0.38019    0.60346    0.78688   1.00
H2       0.38137    0.63090    0.74320   1.00
H2       0.42257    0.62917    0.77425   1.00
H2       0.47369    0.59608    0.72765   1.00
H2       0.45303    0.57178    0.68748   1.00
H2       0.43870    0.61964    0.69883   1.00
H2       0.38564    0.43672    0.69221   1.00
H2       0.34380    0.46532    0.69750   1.00
H2       0.37572    0.47352    0.65767   1.00
H2       0.46163    0.50862    0.71626   1.00
H2       0.45104    0.46308    0.69596   1.00
H2       0.44287    0.50550    0.66798   1.00
H2       0.39455    0.55514    0.63612   1.00
H2       0.35605    0.58708    0.62363   1.00
H2       0.39229    0.60332    0.65488   1.00
H2       0.32712    0.51902    0.64188   1.00
H2       0.30140    0.52068    0.68589   1.00
H2       0.29567    0.55828    0.65192   1.00
H2       0.27439    0.51688    0.83515   1.00
H2       0.27368    0.51809    0.88632   1.00
H2       0.31658    0.53048    0.86133   1.00
H2       0.24489    0.45125    0.88123   1.00
H2       0.25222    0.44574    0.83092   1.00
H2       0.27138    0.41122    0.86401   1.00
H2       0.38155    0.35202    0.81165   1.00
H2       0.38232    0.39435    0.78279   1.00
H2       0.41389    0.39035    0.82343   1.00
H2       0.33567    0.39416    0.90136   1.00
H2       0.35537    0.35212    0.87969   1.00
H2       0.38660    0.39085    0.89286   1.00
H2       0.38067    0.53656    0.83927   1.00
H2       0.42963    0.52381    0.84952   1.00
H2       0.40773    0.50834    0.80605   1.00
H2       0.41846    0.49044    0.91119   1.00
H2       0.36947    0.50622    0.90965   1.00
H2       0.38077    0.45657    0.91806   1.00
C4       -0.02084   0.25117    0.75281   1.00
C4       0.02088    0.25049    0.75255   1.00
C3       -0.04364   0.24529    0.78690   1.00
C3       0.04384    0.24037    0.78553   1.00
C3       -0.04123   0.25747    0.71704   1.00
C3       0.04114    0.26053    0.71756   1.00
C2       -0.10512   0.25105    0.75057   1.00
C2       0.10512    0.24895    0.74943   1.00
C3       -0.08462   0.24500    0.78581   1.00
C3       0.08481    0.23996    0.78414   1.00
C3       -0.08258   0.25781    0.71667   1.00
C3       0.08238    0.25832    0.71631   1.00
H1       -0.03115   0.24117    0.81355   1.00
H1       0.03148    0.23275    0.81146   1.00
C5       -0.02020   0.26357    0.68189   1.00
C5       0.02020    0.27238    0.68392   1.00
H1       -0.09955   0.24031    0.81134   1.00
H1       0.09990    0.23274    0.80899   1.00
H1       -0.09680   0.26344    0.69100   1.00
H1       0.09632    0.26317    0.69038   1.00
O3       -0.03961   0.26312    0.64668   1.00
O3       0.03901    0.28948    0.65261   1.00
Si1      -0.04247   0.22264    0.62170   1.00
Si1      0.04721    0.33638    0.65353   1.00
C6       -0.07538   0.23957    0.58587   1.00
C6       0.00402    0.21365    0.60159   1.00
C6       -0.06253   0.18351    0.64855   1.00
C6       0.03307    0.36283    0.69551   1.00
C6       0.09802    0.33942    0.64777   1.00
C6       0.02523    0.35649    0.61164   1.00
C6       -0.11194   0.26224    0.60145   1.00
H2       -0.05791   0.26131    0.57045   1.00
C6       -0.09147   0.21149    0.55344   1.00
H2       0.01642    0.24295    0.60033   1.00
C6       0.03366    0.18867    0.62572   1.00
C6       0.00664    0.19739    0.55899   1.00
H2       -0.08831   0.19692    0.66171   1.00
C6       -0.07772   0.14746    0.62487   1.00
C6       -0.03849   0.16499    0.68295   1.00
C6       -0.01071   0.36106    0.70827   1.00
C6       0.05775    0.35921    0.73382   1.00
H2       0.03788    0.39297    0.68641   1.00
H2       0.10949    0.32827    0.67530   1.00
C6       0.11622    0.31279    0.61539   1.00
C6       0.11607    0.38095    0.64214   1.00
H2       0.04625    0.35078    0.58839   1.00
C6       -0.01336   0.33685    0.59769   1.00
C6       0.01756    0.40154    0.61089   1.00
H2       -0.10346   0.28688    0.61981   1.00
H2       -0.13090   0.24320    0.61863   1.00
H2       -0.12917   0.27425    0.57743   1.00
H2       -0.09608   0.22765    0.52631   1.00
H2       -0.07178   0.18748    0.54697   1.00
H2       -0.11964   0.19883    0.56130   1.00
H2       0.06328    0.19221    0.61436   1.00
H2       0.03468    0.19750    0.65620   1.00
H2       0.02648    0.15767    0.62428   1.00
H2       -0.00862   0.21626    0.53837   1.00
H2       0.03692    0.19596    0.54896   1.00
H2       -0.00550   0.16798    0.55713   1.00
H2       -0.05514   0.13612    0.60545   1.00
H2       -0.08708   0.12363    0.64395   1.00
H2       -0.10332   0.15488    0.60771   1.00
H2       -0.01902   0.14188    0.67288   1.00
H2       -0.02068   0.18589    0.69860   1.00
H2       -0.05828   0.15192    0.70433   1.00
H2       -0.01688   0.33515    0.72561   1.00
H2       -0.01809   0.38632    0.72632   1.00
H2       -0.03048   0.36133    0.68342   1.00
H2       0.04875    0.38123    0.75511   1.00
H2       0.05426    0.33092    0.74778   1.00
H2       0.08878    0.36401    0.72862   1.00
H2       0.14798    0.31165    0.61845   1.00
H2       0.10565    0.28279    0.61768   1.00
H2       0.10965    0.32343    0.58611   1.00
H2       0.10584    0.40136    0.66433   1.00
H2       0.14788    0.37969    0.64463   1.00
H2       0.10915    0.39286    0.61340   1.00
H2       -0.03656   0.33927    0.61933   1.00
H2       -0.02381   0.34952    0.57037   1.00
H2       -0.00834   0.30605    0.59227   1.00
H2       0.00956    0.41119    0.58154   1.00
H2       -0.00622   0.40965    0.63053   1.00
H2       0.04343    0.41806    0.61923   1.00
C4       0.52084    0.25117    0.74719   1.00
C4       0.47912    0.25049    0.74745   1.00
C3       0.54364    0.24529    0.71310   1.00
C3       0.45616    0.24037    0.71447   1.00
C3       0.54123    0.25747    0.78296   1.00
C3       0.45886    0.26053    0.78244   1.00
C2       0.60512    0.25105    0.74943   1.00
C2       0.39488    0.24895    0.75057   1.00
C3       0.58462    0.24500    0.71419   1.00
C3       0.41519    0.23996    0.71586   1.00
C3       0.58258    0.25781    0.78333   1.00
C3       0.41762    0.25832    0.78369   1.00
H1       0.53115    0.24117    0.68645   1.00
H1       0.46852    0.23275    0.68854   1.00
C5       0.52020    0.26357    0.81811   1.00
C5       0.47980    0.27238    0.81608   1.00
H1       0.59955    0.24031    0.68866   1.00
H1       0.40010    0.23274    0.69101   1.00
H1       0.59680    0.26344    0.80900   1.00
H1       0.40368    0.26317    0.80962   1.00
O3       0.53961    0.26312    0.85332   1.00
O3       0.46099    0.28948    0.84739   1.00
Si1      0.54247    0.22264    0.87830   1.00
Si1      0.45279    0.33638    0.84647   1.00
C6       0.57538    0.23957    0.91413   1.00
C6       0.49598    0.21365    0.89841   1.00
C6       0.56253    0.18351    0.85145   1.00
C6       0.46693    0.36283    0.80449   1.00
C6       0.40198    0.33942    0.85223   1.00
C6       0.47477    0.35649    0.88836   1.00
C6       0.61194    0.26224    0.89855   1.00
H2       0.55791    0.26131    0.92955   1.00
C6       0.59147    0.21149    0.94656   1.00
H2       0.48358    0.24295    0.89967   1.00
C6       0.46634    0.18867    0.87428   1.00
C6       0.49336    0.19739    0.94101   1.00
H2       0.58831    0.19692    0.83829   1.00
C6       0.57772    0.14746    0.87513   1.00
C6       0.53849    0.16499    0.81705   1.00
C6       0.51071    0.36106    0.79173   1.00
C6       0.44225    0.35921    0.76618   1.00
H2       0.46212    0.39297    0.81359   1.00
H2       0.39051    0.32827    0.82470   1.00
C6       0.38378    0.31279    0.88461   1.00
C6       0.38393    0.38095    0.85786   1.00
H2       0.45375    0.35078    0.91161   1.00
C6       0.51336    0.33685    0.90231   1.00
C6       0.48244    0.40154    0.88911   1.00
H2       0.60346    0.28688    0.88019   1.00
H2       0.63090    0.24320    0.88137   1.00
H2       0.62917    0.27425    0.92257   1.00
H2       0.59608    0.22765    0.97369   1.00
H2       0.57178    0.18748    0.95303   1.00
H2       0.61964    0.19883    0.93870   1.00
H2       0.43672    0.19221    0.88564   1.00
H2       0.46532    0.19750    0.84380   1.00
H2       0.47352    0.15767    0.87572   1.00
H2       0.50862    0.21626    0.96163   1.00
H2       0.46308    0.19596    0.95104   1.00
H2       0.50550    0.16798    0.94287   1.00
H2       0.55514    0.13612    0.89455   1.00
H2       0.58708    0.12363    0.85605   1.00
H2       0.60332    0.15488    0.89229   1.00
H2       0.51902    0.14188    0.82712   1.00
H2       0.52068    0.18589    0.80140   1.00
H2       0.55828    0.15192    0.79567   1.00
H2       0.51688    0.33515    0.77439   1.00
H2       0.51809    0.38632    0.77368   1.00
H2       0.53048    0.36133    0.81658   1.00
H2       0.45125    0.38123    0.74489   1.00
H2       0.44574    0.33092    0.75222   1.00
H2       0.41122    0.36401    0.77138   1.00
H2       0.35202    0.31165    0.88155   1.00
H2       0.39435    0.28279    0.88232   1.00
H2       0.39035    0.32343    0.91389   1.00
H2       0.39416    0.40136    0.83567   1.00
H2       0.35212    0.37969    0.85537   1.00
H2       0.39085    0.39286    0.88660   1.00
H2       0.53656    0.33927    0.88067   1.00
H2       0.52381    0.34952    0.92963   1.00
H2       0.50834    0.30605    0.90773   1.00
H2       0.49044    0.41119    0.91846   1.00
H2       0.50622    0.40965    0.86947   1.00
H2       0.45657    0.41806    0.88077   1.00
C4       0.25281    -0.02084   0.75117   1.00
C4       0.25255    0.02088    0.75049   1.00
C3       0.28690    -0.04364   0.74529   1.00
C3       0.28553    0.04384    0.74037   1.00
C3       0.21704    -0.04123   0.75747   1.00
C3       0.21756    0.04114    0.76053   1.00
C2       0.25057    -0.10512   0.75105   1.00
C2       0.24943    0.10512    0.74895   1.00
C3       0.28581    -0.08462   0.74500   1.00
C3       0.28414    0.08481    0.73996   1.00
C3       0.21667    -0.08258   0.75781   1.00
C3       0.21631    0.08238    0.75832   1.00
H1       0.31355    -0.03115   0.74117   1.00
H1       0.31146    0.03148    0.73275   1.00
C5       0.18189    -0.02020   0.76357   1.00
C5       0.18392    0.02020    0.77238   1.00
H1       0.31134    -0.09955   0.74031   1.00
H1       0.30899    0.09990    0.73274   1.00
H1       0.19100    -0.09680   0.76344   1.00
H1       0.19038    0.09632    0.76317   1.00
O3       0.14668    -0.03961   0.76312   1.00
O3       0.15261    0.03901    0.78948   1.00
Si1      0.12170    -0.04247   0.72264   1.00
Si1      0.15353    0.04721    0.83638   1.00
C6       0.08587    -0.07538   0.73957   1.00
C6       0.10159    0.00402    0.71365   1.00
C6       0.14855    -0.06253   0.68351   1.00
C6       0.19551    0.03307    0.86283   1.00
C6       0.14777    0.09802    0.83942   1.00
C6       0.11164    0.02523    0.85649   1.00
C6       0.10145    -0.11194   0.76224   1.00
H2       0.07045    -0.05791   0.76131   1.00
C6       0.05344    -0.09147   0.71149   1.00
H2       0.10033    0.01642    0.74295   1.00
C6       0.12572    0.03366    0.68867   1.00
C6       0.05899    0.00664    0.69739   1.00
H2       0.16171    -0.08831   0.69692   1.00
C6       0.12487    -0.07772   0.64746   1.00
C6       0.18295    -0.03849   0.66499   1.00
C6       0.20827    -0.01071   0.86106   1.00
C6       0.23382    0.05775    0.85921   1.00
H2       0.18641    0.03788    0.89297   1.00
H2       0.17530    0.10949    0.82827   1.00
C6       0.11539    0.11622    0.81279   1.00
C6       0.14214    0.11607    0.88095   1.00
H2       0.08839    0.04625    0.85078   1.00
C6       0.09769    -0.01336   0.83685   1.00
C6       0.11089    0.01756    0.90154   1.00
H2       0.11981    -0.10346   0.78688   1.00
H2       0.11863    -0.13090   0.74320   1.00
H2       0.07743    -0.12917   0.77425   1.00
H2       0.02631    -0.09608   0.72765   1.00
H2       0.04697    -0.07178   0.68748   1.00
H2       0.06130    -0.11964   0.69883   1.00
H2       0.11436    0.06328    0.69221   1.00
H2       0.15620    0.03468    0.69750   1.00
H2       0.12428    0.02648    0.65767   1.00
H2       0.03837    -0.00862   0.71626   1.00
H2       0.04896    0.03692    0.69596   1.00
H2       0.05713    -0.00550   0.66798   1.00
H2       0.10545    -0.05514   0.63612   1.00
H2       0.14395    -0.08708   0.62363   1.00
H2       0.10771    -0.10332   0.65488   1.00
H2       0.17288    -0.01902   0.64188   1.00
H2       0.19860    -0.02068   0.68589   1.00
H2       0.20433    -0.05828   0.65192   1.00
H2       0.22561    -0.01688   0.83515   1.00
H2       0.22632    -0.01809   0.88632   1.00
H2       0.18342    -0.03048   0.86133   1.00
H2       0.25511    0.04875    0.88123   1.00
H2       0.24778    0.05426    0.83092   1.00
H2       0.22862    0.08878    0.86401   1.00
H2       0.11845    0.14798    0.81165   1.00
H2       0.11768    0.10565    0.78279   1.00
H2       0.08611    0.10965    0.82343   1.00
H2       0.16433    0.10584    0.90136   1.00
H2       0.14463    0.14788    0.87969   1.00
H2       0.11340    0.10915    0.89286   1.00
H2       0.11933    -0.03656   0.83927   1.00
H2       0.07037    -0.02381   0.84952   1.00
H2       0.09227    -0.00834   0.80605   1.00
H2       0.08154    0.00956    0.91119   1.00
H2       0.13053    -0.00622   0.90965   1.00
H2       0.11923    0.04343    0.91806   1.00
C4       0.25117    0.25281    0.47916   1.00
C4       0.25049    0.25255    0.52088   1.00
C3       0.24529    0.28690    0.45636   1.00
C3       0.24037    0.28553    0.54384   1.00
C3       0.25747    0.21704    0.45877   1.00
C3       0.26053    0.21756    0.54114   1.00
C2       0.25105    0.25057    0.39488   1.00
C2       0.24895    0.24943    0.60512   1.00
C3       0.24500    0.28581    0.41538   1.00
C3       0.23996    0.28414    0.58481   1.00
C3       0.25781    0.21667    0.41742   1.00
C3       0.25832    0.21631    0.58238   1.00
H1       0.24117    0.31355    0.46885   1.00
H1       0.23275    0.31146    0.53148   1.00
C5       0.26357    0.18189    0.47980   1.00
C5       0.27238    0.18392    0.52020   1.00
H1       0.24031    0.31134    0.40045   1.00
H1       0.23274    0.30899    0.59990   1.00
H1       0.26344    0.19100    0.40320   1.00
H1       0.26317    0.19038    0.59632   1.00
O3       0.26312    0.14668    0.46039   1.00
O3       0.28948    0.15261    0.53901   1.00
Si1      0.22264    0.12170    0.45753   1.00
Si1      0.33638    0.15353    0.54721   1.00
C6       0.23957    0.08587    0.42462   1.00
C6       0.21365    0.10159    0.50402   1.00
C6       0.18351    0.14855    0.43747   1.00
C6       0.36283    0.19551    0.53307   1.00
C6       0.33942    0.14777    0.59802   1.00
C6       0.35649    0.11164    0.52523   1.00
C6       0.26224    0.10145    0.38806   1.00
H2       0.26131    0.07045    0.44209   1.00
C6       0.21149    0.05344    0.40853   1.00
H2       0.24295    0.10033    0.51642   1.00
C6       0.18867    0.12572    0.53366   1.00
C6       0.19739    0.05899    0.50664   1.00
H2       0.19692    0.16171    0.41169   1.00
C6       0.14746    0.12487    0.42228   1.00
C6       0.16499    0.18295    0.46151   1.00
C6       0.36106    0.20827    0.48929   1.00
C6       0.35921    0.23382    0.55775   1.00
H2       0.39297    0.18641    0.53788   1.00
H2       0.32827    0.17530    0.60949   1.00
C6       0.31279    0.11539    0.61622   1.00
C6       0.38095    0.14214    0.61607   1.00
H2       0.35078    0.08839    0.54625   1.00
C6       0.33685    0.09769    0.48664   1.00
C6       0.40154    0.11089    0.51756   1.00
H2       0.28688    0.11981    0.39654   1.00
H2       0.24320    0.11863    0.36910   1.00
H2       0.27425    0.07743    0.37083   1.00
H2       0.22765    0.02631    0.40392   1.00
H2       0.18748    0.04697    0.42822   1.00
H2       0.19883    0.06130    0.38036   1.00
H2       0.19221    0.11436    0.56328   1.00
H2       0.19750    0.15620    0.53468   1.00
H2       0.15767    0.12428    0.52648   1.00
H2       0.21626    0.03837    0.49138   1.00
H2       0.19596    0.04896    0.53692   1.00
H2       0.16798    0.05713    0.49450   1.00
H2       0.13612    0.10545    0.44486   1.00
H2       0.12363    0.14395    0.41292   1.00
H2       0.15488    0.10771    0.39668   1.00
H2       0.14188    0.17288    0.48098   1.00
H2       0.18589    0.19860    0.47932   1.00
H2       0.15192    0.20433    0.44172   1.00
H2       0.33515    0.22561    0.48312   1.00
H2       0.38632    0.22632    0.48191   1.00
H2       0.36133    0.18342    0.46952   1.00
H2       0.38123    0.25511    0.54875   1.00
H2       0.33092    0.24778    0.55426   1.00
H2       0.36401    0.22862    0.58878   1.00
H2       0.31165    0.11845    0.64798   1.00
H2       0.28279    0.11768    0.60565   1.00
H2       0.32343    0.08611    0.60965   1.00
H2       0.40136    0.16433    0.60584   1.00
H2       0.37969    0.14463    0.64788   1.00
H2       0.39286    0.11340    0.60915   1.00
H2       0.33927    0.11933    0.46344   1.00
H2       0.34952    0.07037    0.47619   1.00
H2       0.30605    0.09227    0.49166   1.00
H2       0.41119    0.08154    0.50956   1.00
H2       0.40965    0.13053    0.49378   1.00
H2       0.41806    0.11923    0.54343   1.00
C4       0.25117    0.74719    0.52084   1.00
C4       0.25049    0.74745    0.47912   1.00
C3       0.24529    0.71310    0.54364   1.00
C3       0.24037    0.71447    0.45616   1.00
C3       0.25747    0.78296    0.54123   1.00
C3       0.26053    0.78244    0.45886   1.00
C2       0.25105    0.74943    0.60512   1.00
C2       0.24895    0.75057    0.39488   1.00
C3       0.24500    0.71419    0.58462   1.00
C3       0.23996    0.71586    0.41519   1.00
C3       0.25781    0.78333    0.58258   1.00
C3       0.25832    0.78369    0.41762   1.00
H1       0.24117    0.68645    0.53115   1.00
H1       0.23275    0.68854    0.46852   1.00
C5       0.26357    0.81811    0.52020   1.00
C5       0.27238    0.81608    0.47980   1.00
H1       0.24031    0.68866    0.59955   1.00
H1       0.23274    0.69101    0.40010   1.00
H1       0.26344    0.80900    0.59680   1.00
H1       0.26317    0.80962    0.40368   1.00
O3       0.26312    0.85332    0.53961   1.00
O3       0.28948    0.84739    0.46099   1.00
Si1      0.22264    0.87830    0.54247   1.00
Si1      0.33638    0.84647    0.45279   1.00
C6       0.23957    0.91413    0.57538   1.00
C6       0.21365    0.89841    0.49598   1.00
C6       0.18351    0.85145    0.56253   1.00
C6       0.36283    0.80449    0.46693   1.00
C6       0.33942    0.85223    0.40198   1.00
C6       0.35649    0.88836    0.47477   1.00
C6       0.26224    0.89855    0.61194   1.00
H2       0.26131    0.92955    0.55791   1.00
C6       0.21149    0.94656    0.59147   1.00
H2       0.24295    0.89967    0.48358   1.00
C6       0.18867    0.87428    0.46634   1.00
C6       0.19739    0.94101    0.49336   1.00
H2       0.19692    0.83829    0.58831   1.00
C6       0.14746    0.87513    0.57772   1.00
C6       0.16499    0.81705    0.53849   1.00
C6       0.36106    0.79173    0.51071   1.00
C6       0.35921    0.76618    0.44225   1.00
H2       0.39297    0.81359    0.46212   1.00
H2       0.32827    0.82470    0.39051   1.00
C6       0.31279    0.88461    0.38378   1.00
C6       0.38095    0.85786    0.38393   1.00
H2       0.35078    0.91161    0.45375   1.00
C6       0.33685    0.90231    0.51336   1.00
C6       0.40154    0.88911    0.48244   1.00
H2       0.28688    0.88019    0.60346   1.00
H2       0.24320    0.88137    0.63090   1.00
H2       0.27425    0.92257    0.62917   1.00
H2       0.22765    0.97369    0.59608   1.00
H2       0.18748    0.95303    0.57178   1.00
H2       0.19883    0.93870    0.61964   1.00
H2       0.19221    0.88564    0.43672   1.00
H2       0.19750    0.84380    0.46532   1.00
H2       0.15767    0.87572    0.47352   1.00
H2       0.21626    0.96163    0.50862   1.00
H2       0.19596    0.95104    0.46308   1.00
H2       0.16798    0.94287    0.50550   1.00
H2       0.13612    0.89455    0.55514   1.00
H2       0.12363    0.85605    0.58708   1.00
H2       0.15488    0.89229    0.60332   1.00
H2       0.14188    0.82712    0.51902   1.00
H2       0.18589    0.80140    0.52068   1.00
H2       0.15192    0.79567    0.55828   1.00
H2       0.33515    0.77439    0.51688   1.00
H2       0.38632    0.77368    0.51809   1.00
H2       0.36133    0.81658    0.53048   1.00
H2       0.38123    0.74489    0.45125   1.00
H2       0.33092    0.75222    0.44574   1.00
H2       0.36401    0.77138    0.41122   1.00
H2       0.31165    0.88155    0.35202   1.00
H2       0.28279    0.88232    0.39435   1.00
H2       0.32343    0.91389    0.39035   1.00
H2       0.40136    0.83567    0.39416   1.00
H2       0.37969    0.85537    0.35212   1.00
H2       0.39286    0.88660    0.39085   1.00
H2       0.33927    0.88067    0.53656   1.00
H2       0.34952    0.92963    0.52381   1.00
H2       0.30605    0.90773    0.50834   1.00
H2       0.41119    0.91846    0.49044   1.00
H2       0.40965    0.86947    0.50622   1.00
H2       0.41806    0.88077    0.45657   1.00
C4       0.24719    1.02084    0.25117   1.00
C4       0.24745    0.97912    0.25049   1.00
C3       0.21310    1.04364    0.24529   1.00
C3       0.21447    0.95616    0.24037   1.00
C3       0.28296    1.04123    0.25747   1.00
C3       0.28244    0.95886    0.26053   1.00
C2       0.24943    1.10512    0.25105   1.00
C2       0.25057    0.89488    0.24895   1.00
C3       0.21419    1.08462    0.24500   1.00
C3       0.21586    0.91519    0.23996   1.00
C3       0.28333    1.08258    0.25781   1.00
C3       0.28369    0.91762    0.25832   1.00
H1       0.18645    1.03115    0.24117   1.00
H1       0.18854    0.96852    0.23275   1.00
C5       0.31811    1.02020    0.26357   1.00
C5       0.31608    0.97980    0.27238   1.00
H1       0.18866    1.09955    0.24031   1.00
H1       0.19101    0.90010    0.23274   1.00
H1       0.30900    1.09680    0.26344   1.00
H1       0.30962    0.90368    0.26317   1.00
O3       0.35332    1.03961    0.26312   1.00
O3       0.34739    0.96099    0.28948   1.00
Si1      0.37830    1.04247    0.22264   1.00
Si1      0.34647    0.95279    0.33638   1.00
C6       0.41413    1.07538    0.23957   1.00
C6       0.39841    0.99598    0.21365   1.00
C6       0.35145    1.06253    0.18351   1.00
C6       0.30449    0.96693    0.36283   1.00
C6       0.35223    0.90198    0.33942   1.00
C6       0.38836    0.97477    0.35649   1.00
C6       0.39855    1.11194    0.26224   1.00
H2       0.42955    1.05791    0.26131   1.00
C6       0.44656    1.09147    0.21149   1.00
H2       0.39967    0.98358    0.24295   1.00
C6       0.37428    0.96634    0.18867   1.00
C6       0.44101    0.99336    0.19739   1.00
H2       0.33829    1.08831    0.19692   1.00
C6       0.37513    1.07772    0.14746   1.00
C6       0.31705    1.03849    0.16499   1.00
C6       0.29173    1.01071    0.36106   1.00
C6       0.26618    0.94225    0.35921   1.00
H2       0.31359    0.96212    0.39297   1.00
H2       0.32470    0.89051    0.32827   1.00
C6       0.38461    0.88378    0.31279   1.00
C6       0.35786    0.88393    0.38095   1.00
H2       0.41161    0.95375    0.35078   1.00
C6       0.40231    1.01336    0.33685   1.00
C6       0.38911    0.98244    0.40154   1.00
H2       0.38019    1.10346    0.28688   1.00
H2       0.38137    1.13090    0.24320   1.00
H2       0.42257    1.12917    0.27425   1.00
H2       0.47369    1.09608    0.22765   1.00
H2       0.45303    1.07178    0.18748   1.00
H2       0.43870    1.11964    0.19883   1.00
H2       0.38564    0.93672    0.19221   1.00
H2       0.34380    0.96532    0.19750   1.00
H2       0.37572    0.97352    0.15767   1.00
H2       0.46163    1.00862    0.21626   1.00
H2       0.45104    0.96308    0.19596   1.00
H2       0.44287    1.00550    0.16798   1.00
H2       0.39455    1.05514    0.13612   1.00
H2       0.35605    1.08708    0.12363   1.00
H2       0.39229    1.10332    0.15488   1.00
H2       0.32712    1.01902    0.14188   1.00
H2       0.30140    1.02068    0.18589   1.00
H2       0.29567    1.05828    0.15192   1.00
H2       0.27439    1.01688    0.33515   1.00
H2       0.27368    1.01809    0.38632   1.00
H2       0.31658    1.03048    0.36133   1.00
H2       0.24489    0.95125    0.38123   1.00
H2       0.25222    0.94574    0.33092   1.00
H2       0.27138    0.91122    0.36401   1.00
H2       0.38155    0.85202    0.31165   1.00
H2       0.38232    0.89435    0.28279   1.00
H2       0.41389    0.89035    0.32343   1.00
H2       0.33567    0.89416    0.40136   1.00
H2       0.35537    0.85212    0.37969   1.00
H2       0.38660    0.89085    0.39286   1.00
H2       0.38067    1.03656    0.33927   1.00
H2       0.42963    1.02381    0.34952   1.00
H2       0.40773    1.00834    0.30605   1.00
H2       0.41846    0.99044    0.41119   1.00
H2       0.36947    1.00622    0.40965   1.00
H2       0.38077    0.95657    0.41806   1.00
C4       -0.02084   0.75117    0.25281   1.00
C4       0.02088    0.75049    0.25255   1.00
C3       -0.04364   0.74529    0.28690   1.00
C3       0.04384    0.74037    0.28553   1.00
C3       -0.04123   0.75747    0.21704   1.00
C3       0.04114    0.76053    0.21756   1.00
C2       -0.10512   0.75105    0.25057   1.00
C2       0.10512    0.74895    0.24943   1.00
C3       -0.08462   0.74500    0.28581   1.00
C3       0.08481    0.73996    0.28414   1.00
C3       -0.08258   0.75781    0.21667   1.00
C3       0.08238    0.75832    0.21631   1.00
H1       -0.03115   0.74117    0.31355   1.00
H1       0.03148    0.73275    0.31146   1.00
C5       -0.02020   0.76357    0.18189   1.00
C5       0.02020    0.77238    0.18392   1.00
H1       -0.09955   0.74031    0.31134   1.00
H1       0.09990    0.73274    0.30899   1.00
H1       -0.09680   0.76344    0.19100   1.00
H1       0.09632    0.76317    0.19038   1.00
O3       -0.03961   0.76312    0.14668   1.00
O3       0.03901    0.78948    0.15261   1.00
Si1      -0.04247   0.72264    0.12170   1.00
Si1      0.04721    0.83638    0.15353   1.00
C6       -0.07538   0.73957    0.08587   1.00
C6       0.00402    0.71365    0.10159   1.00
C6       -0.06253   0.68351    0.14855   1.00
C6       0.03307    0.86283    0.19551   1.00
C6       0.09802    0.83942    0.14777   1.00
C6       0.02523    0.85649    0.11164   1.00
C6       -0.11194   0.76224    0.10145   1.00
H2       -0.05791   0.76131    0.07045   1.00
C6       -0.09147   0.71149    0.05344   1.00
H2       0.01642    0.74295    0.10033   1.00
C6       0.03366    0.68867    0.12572   1.00
C6       0.00664    0.69739    0.05899   1.00
H2       -0.08831   0.69692    0.16171   1.00
C6       -0.07772   0.64746    0.12487   1.00
C6       -0.03849   0.66499    0.18295   1.00
C6       -0.01071   0.86106    0.20827   1.00
C6       0.05775    0.85921    0.23382   1.00
H2       0.03788    0.89297    0.18641   1.00
H2       0.10949    0.82827    0.17530   1.00
C6       0.11622    0.81279    0.11539   1.00
C6       0.11607    0.88095    0.14214   1.00
H2       0.04625    0.85078    0.08839   1.00
C6       -0.01336   0.83685    0.09769   1.00
C6       0.01756    0.90154    0.11089   1.00
H2       -0.10346   0.78688    0.11981   1.00
H2       -0.13090   0.74320    0.11863   1.00
H2       -0.12917   0.77425    0.07743   1.00
H2       -0.09608   0.72765    0.02631   1.00
H2       -0.07178   0.68748    0.04697   1.00
H2       -0.11964   0.69883    0.06130   1.00
H2       0.06328    0.69221    0.11436   1.00
H2       0.03468    0.69750    0.15620   1.00
H2       0.02648    0.65767    0.12428   1.00
H2       -0.00862   0.71626    0.03837   1.00
H2       0.03692    0.69596    0.04896   1.00
H2       -0.00550   0.66798    0.05713   1.00
H2       -0.05514   0.63612    0.10545   1.00
H2       -0.08708   0.62363    0.14395   1.00
H2       -0.10332   0.65488    0.10771   1.00
H2       -0.01902   0.64188    0.17288   1.00
H2       -0.02068   0.68589    0.19860   1.00
H2       -0.05828   0.65192    0.20433   1.00
H2       -0.01688   0.83515    0.22561   1.00
H2       -0.01809   0.88632    0.22632   1.00
H2       -0.03048   0.86133    0.18342   1.00
H2       0.04875    0.88123    0.25511   1.00
H2       0.05426    0.83092    0.24778   1.00
H2       0.08878    0.86401    0.22862   1.00
H2       0.14798    0.81165    0.11845   1.00
H2       0.10565    0.78279    0.11768   1.00
H2       0.10965    0.82343    0.08611   1.00
H2       0.10584    0.90136    0.16433   1.00
H2       0.14788    0.87969    0.14463   1.00
H2       0.10915    0.89286    0.11340   1.00
H2       -0.03656   0.83927    0.11933   1.00
H2       -0.02381   0.84952    0.07037   1.00
H2       -0.00834   0.80605    0.09227   1.00
H2       0.00956    0.91119    0.08154   1.00
H2       -0.00622   0.90965    0.13053   1.00
H2       0.04343    0.91806    0.11923   1.00
C4       0.52084    0.75117    0.24719   1.00
C4       0.47912    0.75049    0.24745   1.00
C3       0.54364    0.74529    0.21310   1.00
C3       0.45616    0.74037    0.21447   1.00
C3       0.54123    0.75747    0.28296   1.00
C3       0.45886    0.76053    0.28244   1.00
C2       0.60512    0.75105    0.24943   1.00
C2       0.39488    0.74895    0.25057   1.00
C3       0.58462    0.74500    0.21419   1.00
C3       0.41519    0.73996    0.21586   1.00
C3       0.58258    0.75781    0.28333   1.00
C3       0.41762    0.75832    0.28369   1.00
H1       0.53115    0.74117    0.18645   1.00
H1       0.46852    0.73275    0.18854   1.00
C5       0.52020    0.76357    0.31811   1.00
C5       0.47980    0.77238    0.31608   1.00
H1       0.59955    0.74031    0.18866   1.00
H1       0.40010    0.73274    0.19101   1.00
H1       0.59680    0.76344    0.30900   1.00
H1       0.40368    0.76317    0.30962   1.00
O3       0.53961    0.76312    0.35332   1.00
O3       0.46099    0.78948    0.34739   1.00
Si1      0.54247    0.72264    0.37830   1.00
Si1      0.45279    0.83638    0.34647   1.00
C6       0.57538    0.73957    0.41413   1.00
C6       0.49598    0.71365    0.39841   1.00
C6       0.56253    0.68351    0.35145   1.00
C6       0.46693    0.86283    0.30449   1.00
C6       0.40198    0.83942    0.35223   1.00
C6       0.47477    0.85649    0.38836   1.00
C6       0.61194    0.76224    0.39855   1.00
H2       0.55791    0.76131    0.42955   1.00
C6       0.59147    0.71149    0.44656   1.00
H2       0.48358    0.74295    0.39967   1.00
C6       0.46634    0.68867    0.37428   1.00
C6       0.49336    0.69739    0.44101   1.00
H2       0.58831    0.69692    0.33829   1.00
C6       0.57772    0.64746    0.37513   1.00
C6       0.53849    0.66499    0.31705   1.00
C6       0.51071    0.86106    0.29173   1.00
C6       0.44225    0.85921    0.26618   1.00
H2       0.46212    0.89297    0.31359   1.00
H2       0.39051    0.82827    0.32470   1.00
C6       0.38378    0.81279    0.38461   1.00
C6       0.38393    0.88095    0.35786   1.00
H2       0.45375    0.85078    0.41161   1.00
C6       0.51336    0.83685    0.40231   1.00
C6       0.48244    0.90154    0.38911   1.00
H2       0.60346    0.78688    0.38019   1.00
H2       0.63090    0.74320    0.38137   1.00
H2       0.62917    0.77425    0.42257   1.00
H2       0.59608    0.72765    0.47369   1.00
H2       0.57178    0.68748    0.45303   1.00
H2       0.61964    0.69883    0.43870   1.00
H2       0.43672    0.69221    0.38564   1.00
H2       0.46532    0.69750    0.34380   1.00
H2       0.47352    0.65767    0.37572   1.00
H2       0.50862    0.71626    0.46163   1.00
H2       0.46308    0.69596    0.45104   1.00
H2       0.50550    0.66798    0.44287   1.00
H2       0.55514    0.63612    0.39455   1.00
H2       0.58708    0.62363    0.35605   1.00
H2       0.60332    0.65488    0.39229   1.00
H2       0.51902    0.64188    0.32712   1.00
H2       0.52068    0.68589    0.30140   1.00
H2       0.55828    0.65192    0.29567   1.00
H2       0.51688    0.83515    0.27439   1.00
H2       0.51809    0.88632    0.27368   1.00
H2       0.53048    0.86133    0.31658   1.00
H2       0.45125    0.88123    0.24489   1.00
H2       0.44574    0.83092    0.25222   1.00
H2       0.41122    0.86401    0.27138   1.00
H2       0.35202    0.81165    0.38155   1.00
H2       0.39435    0.78279    0.38232   1.00
H2       0.39035    0.82343    0.41389   1.00
H2       0.39416    0.90136    0.33567   1.00
H2       0.35212    0.87969    0.35537   1.00
H2       0.39085    0.89286    0.38660   1.00
H2       0.53656    0.83927    0.38067   1.00
H2       0.52381    0.84952    0.42963   1.00
H2       0.50834    0.80605    0.40773   1.00
H2       0.49044    0.91119    0.41846   1.00
H2       0.50622    0.90965    0.36947   1.00
H2       0.45657    0.91806    0.38077   1.00
C4       0.25281    0.47916    0.25117   1.00
C4       0.25255    0.52088    0.25049   1.00
C3       0.28690    0.45636    0.24529   1.00
C3       0.28553    0.54384    0.24037   1.00
C3       0.21704    0.45877    0.25747   1.00
C3       0.21756    0.54114    0.26053   1.00
C2       0.25057    0.39488    0.25105   1.00
C2       0.24943    0.60512    0.24895   1.00
C3       0.28581    0.41538    0.24500   1.00
C3       0.28414    0.58481    0.23996   1.00
C3       0.21667    0.41742    0.25781   1.00
C3       0.21631    0.58238    0.25832   1.00
H1       0.31355    0.46885    0.24117   1.00
H1       0.31146    0.53148    0.23275   1.00
C5       0.18189    0.47980    0.26357   1.00
C5       0.18392    0.52020    0.27238   1.00
H1       0.31134    0.40045    0.24031   1.00
H1       0.30899    0.59990    0.23274   1.00
H1       0.19100    0.40320    0.26344   1.00
H1       0.19038    0.59632    0.26317   1.00
O3       0.14668    0.46039    0.26312   1.00
O3       0.15261    0.53901    0.28948   1.00
Si1      0.12170    0.45753    0.22264   1.00
Si1      0.15353    0.54721    0.33638   1.00
C6       0.08587    0.42462    0.23957   1.00
C6       0.10159    0.50402    0.21365   1.00
C6       0.14855    0.43747    0.18351   1.00
C6       0.19551    0.53307    0.36283   1.00
C6       0.14777    0.59802    0.33942   1.00
C6       0.11164    0.52523    0.35649   1.00
C6       0.10145    0.38806    0.26224   1.00
H2       0.07045    0.44209    0.26131   1.00
C6       0.05344    0.40853    0.21149   1.00
H2       0.10033    0.51642    0.24295   1.00
C6       0.12572    0.53366    0.18867   1.00
C6       0.05899    0.50664    0.19739   1.00
H2       0.16171    0.41169    0.19692   1.00
C6       0.12487    0.42228    0.14746   1.00
C6       0.18295    0.46151    0.16499   1.00
C6       0.20827    0.48929    0.36106   1.00
C6       0.23382    0.55775    0.35921   1.00
H2       0.18641    0.53788    0.39297   1.00
H2       0.17530    0.60949    0.32827   1.00
C6       0.11539    0.61622    0.31279   1.00
C6       0.14214    0.61607    0.38095   1.00
H2       0.08839    0.54625    0.35078   1.00
C6       0.09769    0.48664    0.33685   1.00
C6       0.11089    0.51756    0.40154   1.00
H2       0.11981    0.39654    0.28688   1.00
H2       0.11863    0.36910    0.24320   1.00
H2       0.07743    0.37083    0.27425   1.00
H2       0.02631    0.40392    0.22765   1.00
H2       0.04697    0.42822    0.18748   1.00
H2       0.06130    0.38036    0.19883   1.00
H2       0.11436    0.56328    0.19221   1.00
H2       0.15620    0.53468    0.19750   1.00
H2       0.12428    0.52648    0.15767   1.00
H2       0.03837    0.49138    0.21626   1.00
H2       0.04896    0.53692    0.19596   1.00
H2       0.05713    0.49450    0.16798   1.00
H2       0.10545    0.44486    0.13612   1.00
H2       0.14395    0.41292    0.12363   1.00
H2       0.10771    0.39668    0.15488   1.00
H2       0.17288    0.48098    0.14188   1.00
H2       0.19860    0.47932    0.18589   1.00
H2       0.20433    0.44172    0.15192   1.00
H2       0.22561    0.48312    0.33515   1.00
H2       0.22632    0.48191    0.38632   1.00
H2       0.18342    0.46952    0.36133   1.00
H2       0.25511    0.54875    0.38123   1.00
H2       0.24778    0.55426    0.33092   1.00
H2       0.22862    0.58878    0.36401   1.00
H2       0.11845    0.64798    0.31165   1.00
H2       0.11768    0.60565    0.28279   1.00
H2       0.08611    0.60965    0.32343   1.00
H2       0.16433    0.60584    0.40136   1.00
H2       0.14463    0.64788    0.37969   1.00
H2       0.11340    0.60915    0.39286   1.00
H2       0.11933    0.46344    0.33927   1.00
H2       0.07037    0.47619    0.34952   1.00
H2       0.09227    0.49166    0.30605   1.00
H2       0.08154    0.50956    0.41119   1.00
H2       0.13053    0.49378    0.40965   1.00
H2       0.11923    0.54343    0.41806   1.00
C4       0.25117    0.75281    -0.02084   1.00
C4       0.25049    0.75255    0.02088   1.00
C3       0.24529    0.78690    -0.04364   1.00
C3       0.24037    0.78553    0.04384   1.00
C3       0.25747    0.71704    -0.04123   1.00
C3       0.26053    0.71756    0.04114   1.00
C2       0.25105    0.75057    -0.10512   1.00
C2       0.24895    0.74943    0.10512   1.00
C3       0.24500    0.78581    -0.08462   1.00
C3       0.23996    0.78414    0.08481   1.00
C3       0.25781    0.71667    -0.08258   1.00
C3       0.25832    0.71631    0.08238   1.00
H1       0.24117    0.81355    -0.03115   1.00
H1       0.23275    0.81146    0.03148   1.00
C5       0.26357    0.68189    -0.02020   1.00
C5       0.27238    0.68392    0.02020   1.00
H1       0.24031    0.81134    -0.09955   1.00
H1       0.23274    0.80899    0.09990   1.00
H1       0.26344    0.69100    -0.09680   1.00
H1       0.26317    0.69038    0.09632   1.00
O3       0.26312    0.64668    -0.03961   1.00
O3       0.28948    0.65261    0.03901   1.00
Si1      0.22264    0.62170    -0.04247   1.00
Si1      0.33638    0.65353    0.04721   1.00
C6       0.23957    0.58587    -0.07538   1.00
C6       0.21365    0.60159    0.00402   1.00
C6       0.18351    0.64855    -0.06253   1.00
C6       0.36283    0.69551    0.03307   1.00
C6       0.33942    0.64777    0.09802   1.00
C6       0.35649    0.61164    0.02523   1.00
C6       0.26224    0.60145    -0.11194   1.00
H2       0.26131    0.57045    -0.05791   1.00
C6       0.21149    0.55344    -0.09147   1.00
H2       0.24295    0.60033    0.01642   1.00
C6       0.18867    0.62572    0.03366   1.00
C6       0.19739    0.55899    0.00664   1.00
H2       0.19692    0.66171    -0.08831   1.00
C6       0.14746    0.62487    -0.07772   1.00
C6       0.16499    0.68295    -0.03849   1.00
C6       0.36106    0.70827    -0.01071   1.00
C6       0.35921    0.73382    0.05775   1.00
H2       0.39297    0.68641    0.03788   1.00
H2       0.32827    0.67530    0.10949   1.00
C6       0.31279    0.61539    0.11622   1.00
C6       0.38095    0.64214    0.11607   1.00
H2       0.35078    0.58839    0.04625   1.00
C6       0.33685    0.59769    -0.01336   1.00
C6       0.40154    0.61089    0.01756   1.00
H2       0.28688    0.61981    -0.10346   1.00
H2       0.24320    0.61863    -0.13090   1.00
H2       0.27425    0.57743    -0.12917   1.00
H2       0.22765    0.52631    -0.09608   1.00
H2       0.18748    0.54697    -0.07178   1.00
H2       0.19883    0.56130    -0.11964   1.00
H2       0.19221    0.61436    0.06328   1.00
H2       0.19750    0.65620    0.03468   1.00
H2       0.15767    0.62428    0.02648   1.00
H2       0.21626    0.53837    -0.00862   1.00
H2       0.19596    0.54896    0.03692   1.00
H2       0.16798    0.55713    -0.00550   1.00
H2       0.13612    0.60545    -0.05514   1.00
H2       0.12363    0.64395    -0.08708   1.00
H2       0.15488    0.60771    -0.10332   1.00
H2       0.14188    0.67288    -0.01902   1.00
H2       0.18589    0.69860    -0.02068   1.00
H2       0.15192    0.70433    -0.05828   1.00
H2       0.33515    0.72561    -0.01688   1.00
H2       0.38632    0.72632    -0.01809   1.00
H2       0.36133    0.68342    -0.03048   1.00
H2       0.38123    0.75511    0.04875   1.00
H2       0.33092    0.74778    0.05426   1.00
H2       0.36401    0.72862    0.08878   1.00
H2       0.31165    0.61845    0.14798   1.00
H2       0.28279    0.61768    0.10565   1.00
H2       0.32343    0.58611    0.10965   1.00
H2       0.40136    0.66433    0.10584   1.00
H2       0.37969    0.64463    0.14788   1.00
H2       0.39286    0.61340    0.10915   1.00
H2       0.33927    0.61933    -0.03656   1.00
H2       0.34952    0.57037    -0.02381   1.00
H2       0.30605    0.59227    -0.00834   1.00
H2       0.41119    0.58154    0.00956   1.00
H2       0.40965    0.63053    -0.00622   1.00
H2       0.41806    0.61923    0.04343   1.00
C4       0.75117    0.24719    0.52084   1.00
C4       0.75049    0.24745    0.47912   1.00
C3       0.74529    0.21310    0.54364   1.00
C3       0.74037    0.21447    0.45616   1.00
C3       0.75747    0.28296    0.54123   1.00
C3       0.76053    0.28244    0.45886   1.00
C2       0.75105    0.24943    0.60512   1.00
C2       0.74895    0.25057    0.39488   1.00
C3       0.74500    0.21419    0.58462   1.00
C3       0.73996    0.21586    0.41519   1.00
C3       0.75781    0.28333    0.58258   1.00
C3       0.75832    0.28369    0.41762   1.00
H1       0.74117    0.18645    0.53115   1.00
H1       0.73275    0.18854    0.46852   1.00
C5       0.76357    0.31811    0.52020   1.00
C5       0.77238    0.31608    0.47980   1.00
H1       0.74031    0.18866    0.59955   1.00
H1       0.73274    0.19101    0.40010   1.00
H1       0.76344    0.30900    0.59680   1.00
H1       0.76317    0.30962    0.40368   1.00
O3       0.76312    0.35332    0.53961   1.00
O3       0.78948    0.34739    0.46099   1.00
Si1      0.72264    0.37830    0.54247   1.00
Si1      0.83638    0.34647    0.45279   1.00
C6       0.73957    0.41413    0.57538   1.00
C6       0.71365    0.39841    0.49598   1.00
C6       0.68351    0.35145    0.56253   1.00
C6       0.86283    0.30449    0.46693   1.00
C6       0.83942    0.35223    0.40198   1.00
C6       0.85649    0.38836    0.47477   1.00
C6       0.76224    0.39855    0.61194   1.00
H2       0.76131    0.42955    0.55791   1.00
C6       0.71149    0.44656    0.59147   1.00
H2       0.74295    0.39967    0.48358   1.00
C6       0.68867    0.37428    0.46634   1.00
C6       0.69739    0.44101    0.49336   1.00
H2       0.69692    0.33829    0.58831   1.00
C6       0.64746    0.37513    0.57772   1.00
C6       0.66499    0.31705    0.53849   1.00
C6       0.86106    0.29173    0.51071   1.00
C6       0.85921    0.26618    0.44225   1.00
H2       0.89297    0.31359    0.46212   1.00
H2       0.82827    0.32470    0.39051   1.00
C6       0.81279    0.38461    0.38378   1.00
C6       0.88095    0.35786    0.38393   1.00
H2       0.85078    0.41161    0.45375   1.00
C6       0.83685    0.40231    0.51336   1.00
C6       0.90154    0.38911    0.48244   1.00
H2       0.78688    0.38019    0.60346   1.00
H2       0.74320    0.38137    0.63090   1.00
H2       0.77425    0.42257    0.62917   1.00
H2       0.72765    0.47369    0.59608   1.00
H2       0.68748    0.45303    0.57178   1.00
H2       0.69883    0.43870    0.61964   1.00
H2       0.69221    0.38564    0.43672   1.00
H2       0.69750    0.34380    0.46532   1.00
H2       0.65767    0.37572    0.47352   1.00
H2       0.71626    0.46163    0.50862   1.00
H2       0.69596    0.45104    0.46308   1.00
H2       0.66798    0.44287    0.50550   1.00
H2       0.63612    0.39455    0.55514   1.00
H2       0.62363    0.35605    0.58708   1.00
H2       0.65488    0.39229    0.60332   1.00
H2       0.64188    0.32712    0.51902   1.00
H2       0.68589    0.30140    0.52068   1.00
H2       0.65192    0.29567    0.55828   1.00
H2       0.83515    0.27439    0.51688   1.00
H2       0.88632    0.27368    0.51809   1.00
H2       0.86133    0.31658    0.53048   1.00
H2       0.88123    0.24489    0.45125   1.00
H2       0.83092    0.25222    0.44574   1.00
H2       0.86401    0.27138    0.41122   1.00
H2       0.81165    0.38155    0.35202   1.00
H2       0.78279    0.38232    0.39435   1.00
H2       0.82343    0.41389    0.39035   1.00
H2       0.90136    0.33567    0.39416   1.00
H2       0.87969    0.35537    0.35212   1.00
H2       0.89286    0.38660    0.39085   1.00
H2       0.83927    0.38067    0.53656   1.00
H2       0.84952    0.42963    0.52381   1.00
H2       0.80605    0.40773    0.50834   1.00
H2       0.91119    0.41846    0.49044   1.00
H2       0.90965    0.36947    0.50622   1.00
H2       0.91806    0.38077    0.45657   1.00
C4       0.74719    0.52084    0.25117   1.00
C4       0.74745    0.47912    0.25049   1.00
C3       0.71310    0.54364    0.24529   1.00
C3       0.71447    0.45616    0.24037   1.00
C3       0.78296    0.54123    0.25747   1.00
C3       0.78244    0.45886    0.26053   1.00
C2       0.74943    0.60512    0.25105   1.00
C2       0.75057    0.39488    0.24895   1.00
C3       0.71419    0.58462    0.24500   1.00
C3       0.71586    0.41519    0.23996   1.00
C3       0.78333    0.58258    0.25781   1.00
C3       0.78369    0.41762    0.25832   1.00
H1       0.68645    0.53115    0.24117   1.00
H1       0.68854    0.46852    0.23275   1.00
C5       0.81811    0.52020    0.26357   1.00
C5       0.81608    0.47980    0.27238   1.00
H1       0.68866    0.59955    0.24031   1.00
H1       0.69101    0.40010    0.23274   1.00
H1       0.80900    0.59680    0.26344   1.00
H1       0.80962    0.40368    0.26317   1.00
O3       0.85332    0.53961    0.26312   1.00
O3       0.84739    0.46099    0.28948   1.00
Si1      0.87830    0.54247    0.22264   1.00
Si1      0.84647    0.45279    0.33638   1.00
C6       0.91413    0.57538    0.23957   1.00
C6       0.89841    0.49598    0.21365   1.00
C6       0.85145    0.56253    0.18351   1.00
C6       0.80449    0.46693    0.36283   1.00
C6       0.85223    0.40198    0.33942   1.00
C6       0.88836    0.47477    0.35649   1.00
C6       0.89855    0.61194    0.26224   1.00
H2       0.92955    0.55791    0.26131   1.00
C6       0.94656    0.59147    0.21149   1.00
H2       0.89967    0.48358    0.24295   1.00
C6       0.87428    0.46634    0.18867   1.00
C6       0.94101    0.49336    0.19739   1.00
H2       0.83829    0.58831    0.19692   1.00
C6       0.87513    0.57772    0.14746   1.00
C6       0.81705    0.53849    0.16499   1.00
C6       0.79173    0.51071    0.36106   1.00
C6       0.76618    0.44225    0.35921   1.00
H2       0.81359    0.46212    0.39297   1.00
H2       0.82470    0.39051    0.32827   1.00
C6       0.88461    0.38378    0.31279   1.00
C6       0.85786    0.38393    0.38095   1.00
H2       0.91161    0.45375    0.35078   1.00
C6       0.90231    0.51336    0.33685   1.00
C6       0.88911    0.48244    0.40154   1.00
H2       0.88019    0.60346    0.28688   1.00
H2       0.88137    0.63090    0.24320   1.00
H2       0.92257    0.62917    0.27425   1.00
H2       0.97369    0.59608    0.22765   1.00
H2       0.95303    0.57178    0.18748   1.00
H2       0.93870    0.61964    0.19883   1.00
H2       0.88564    0.43672    0.19221   1.00
H2       0.84380    0.46532    0.19750   1.00
H2       0.87572    0.47352    0.15767   1.00
H2       0.96163    0.50862    0.21626   1.00
H2       0.95104    0.46308    0.19596   1.00
H2       0.94287    0.50550    0.16798   1.00
H2       0.89455    0.55514    0.13612   1.00
H2       0.85605    0.58708    0.12363   1.00
H2       0.89229    0.60332    0.15488   1.00
H2       0.82712    0.51902    0.14188   1.00
H2       0.80140    0.52068    0.18589   1.00
H2       0.79567    0.55828    0.15192   1.00
H2       0.77439    0.51688    0.33515   1.00
H2       0.77368    0.51809    0.38632   1.00
H2       0.81658    0.53048    0.36133   1.00
H2       0.74489    0.45125    0.38123   1.00
H2       0.75222    0.44574    0.33092   1.00
H2       0.77138    0.41122    0.36401   1.00
H2       0.88155    0.35202    0.31165   1.00
H2       0.88232    0.39435    0.28279   1.00
H2       0.91389    0.39035    0.32343   1.00
H2       0.83567    0.39416    0.40136   1.00
H2       0.85537    0.35212    0.37969   1.00
H2       0.88660    0.39085    0.39286   1.00
H2       0.88067    0.53656    0.33927   1.00
H2       0.92963    0.52381    0.34952   1.00
H2       0.90773    0.50834    0.30605   1.00
H2       0.91846    0.49044    0.41119   1.00
H2       0.86947    0.50622    0.40965   1.00
H2       0.88077    0.45657    0.41806   1.00
C4       0.47916    0.25117    0.25281   1.00
C4       0.52088    0.25049    0.25255   1.00
C3       0.45636    0.24529    0.28690   1.00
C3       0.54384    0.24037    0.28553   1.00
C3       0.45877    0.25747    0.21704   1.00
C3       0.54114    0.26053    0.21756   1.00
C2       0.39488    0.25105    0.25057   1.00
C2       0.60512    0.24895    0.24943   1.00
C3       0.41538    0.24500    0.28581   1.00
C3       0.58481    0.23996    0.28414   1.00
C3       0.41742    0.25781    0.21667   1.00
C3       0.58238    0.25832    0.21631   1.00
H1       0.46885    0.24117    0.31355   1.00
H1       0.53148    0.23275    0.31146   1.00
C5       0.47980    0.26357    0.18189   1.00
C5       0.52020    0.27238    0.18392   1.00
H1       0.40045    0.24031    0.31134   1.00
H1       0.59990    0.23274    0.30899   1.00
H1       0.40320    0.26344    0.19100   1.00
H1       0.59632    0.26317    0.19038   1.00
O3       0.46039    0.26312    0.14668   1.00
O3       0.53901    0.28948    0.15261   1.00
Si1      0.45753    0.22264    0.12170   1.00
Si1      0.54721    0.33638    0.15353   1.00
C6       0.42462    0.23957    0.08587   1.00
C6       0.50402    0.21365    0.10159   1.00
C6       0.43747    0.18351    0.14855   1.00
C6       0.53307    0.36283    0.19551   1.00
C6       0.59802    0.33942    0.14777   1.00
C6       0.52523    0.35649    0.11164   1.00
C6       0.38806    0.26224    0.10145   1.00
H2       0.44209    0.26131    0.07045   1.00
C6       0.40853    0.21149    0.05344   1.00
H2       0.51642    0.24295    0.10033   1.00
C6       0.53366    0.18867    0.12572   1.00
C6       0.50664    0.19739    0.05899   1.00
H2       0.41169    0.19692    0.16171   1.00
C6       0.42228    0.14746    0.12487   1.00
C6       0.46151    0.16499    0.18295   1.00
C6       0.48929    0.36106    0.20827   1.00
C6       0.55775    0.35921    0.23382   1.00
H2       0.53788    0.39297    0.18641   1.00
H2       0.60949    0.32827    0.17530   1.00
C6       0.61622    0.31279    0.11539   1.00
C6       0.61607    0.38095    0.14214   1.00
H2       0.54625    0.35078    0.08839   1.00
C6       0.48664    0.33685    0.09769   1.00
C6       0.51756    0.40154    0.11089   1.00
H2       0.39654    0.28688    0.11981   1.00
H2       0.36910    0.24320    0.11863   1.00
H2       0.37083    0.27425    0.07743   1.00
H2       0.40392    0.22765    0.02631   1.00
H2       0.42822    0.18748    0.04697   1.00
H2       0.38036    0.19883    0.06130   1.00
H2       0.56328    0.19221    0.11436   1.00
H2       0.53468    0.19750    0.15620   1.00
H2       0.52648    0.15767    0.12428   1.00
H2       0.49138    0.21626    0.03837   1.00
H2       0.53692    0.19596    0.04896   1.00
H2       0.49450    0.16798    0.05713   1.00
H2       0.44486    0.13612    0.10545   1.00
H2       0.41292    0.12363    0.14395   1.00
H2       0.39668    0.15488    0.10771   1.00
H2       0.48098    0.14188    0.17288   1.00
H2       0.47932    0.18589    0.19860   1.00
H2       0.44172    0.15192    0.20433   1.00
H2       0.48312    0.33515    0.22561   1.00
H2       0.48191    0.38632    0.22632   1.00
H2       0.46952    0.36133    0.18342   1.00
H2       0.54875    0.38123    0.25511   1.00
H2       0.55426    0.33092    0.24778   1.00
H2       0.58878    0.36401    0.22862   1.00
H2       0.64798    0.31165    0.11845   1.00
H2       0.60565    0.28279    0.11768   1.00
H2       0.60965    0.32343    0.08611   1.00
H2       0.60584    0.40136    0.16433   1.00
H2       0.64788    0.37969    0.14463   1.00
H2       0.60915    0.39286    0.11340   1.00
H2       0.46344    0.33927    0.11933   1.00
H2       0.47619    0.34952    0.07037   1.00
H2       0.49166    0.30605    0.09227   1.00
H2       0.50956    0.41119    0.08154   1.00
H2       0.49378    0.40965    0.13053   1.00
H2       0.54343    0.41806    0.11923   1.00
C4       1.02084    0.25117    0.24719   1.00
C4       0.97912    0.25049    0.24745   1.00
C3       1.04364    0.24529    0.21310   1.00
C3       0.95616    0.24037    0.21447   1.00
C3       1.04123    0.25747    0.28296   1.00
C3       0.95886    0.26053    0.28244   1.00
C2       1.10512    0.25105    0.24943   1.00
C2       0.89488    0.24895    0.25057   1.00
C3       1.08462    0.24500    0.21419   1.00
C3       0.91519    0.23996    0.21586   1.00
C3       1.08258    0.25781    0.28333   1.00
C3       0.91762    0.25832    0.28369   1.00
H1       1.03115    0.24117    0.18645   1.00
H1       0.96852    0.23275    0.18854   1.00
C5       1.02020    0.26357    0.31811   1.00
C5       0.97980    0.27238    0.31608   1.00
H1       1.09955    0.24031    0.18866   1.00
H1       0.90010    0.23274    0.19101   1.00
H1       1.09680    0.26344    0.30900   1.00
H1       0.90368    0.26317    0.30962   1.00
O3       1.03961    0.26312    0.35332   1.00
O3       0.96099    0.28948    0.34739   1.00
Si1      1.04247    0.22264    0.37830   1.00
Si1      0.95279    0.33638    0.34647   1.00
C6       1.07538    0.23957    0.41413   1.00
C6       0.99598    0.21365    0.39841   1.00
C6       1.06253    0.18351    0.35145   1.00
C6       0.96693    0.36283    0.30449   1.00
C6       0.90198    0.33942    0.35223   1.00
C6       0.97477    0.35649    0.38836   1.00
C6       1.11194    0.26224    0.39855   1.00
H2       1.05791    0.26131    0.42955   1.00
C6       1.09147    0.21149    0.44656   1.00
H2       0.98358    0.24295    0.39967   1.00
C6       0.96634    0.18867    0.37428   1.00
C6       0.99336    0.19739    0.44101   1.00
H2       1.08831    0.19692    0.33829   1.00
C6       1.07772    0.14746    0.37513   1.00
C6       1.03849    0.16499    0.31705   1.00
C6       1.01071    0.36106    0.29173   1.00
C6       0.94225    0.35921    0.26618   1.00
H2       0.96212    0.39297    0.31359   1.00
H2       0.89051    0.32827    0.32470   1.00
C6       0.88378    0.31279    0.38461   1.00
C6       0.88393    0.38095    0.35786   1.00
H2       0.95375    0.35078    0.41161   1.00
C6       1.01336    0.33685    0.40231   1.00
C6       0.98244    0.40154    0.38911   1.00
H2       1.10346    0.28688    0.38019   1.00
H2       1.13090    0.24320    0.38137   1.00
H2       1.12917    0.27425    0.42257   1.00
H2       1.09608    0.22765    0.47369   1.00
H2       1.07178    0.18748    0.45303   1.00
H2       1.11964    0.19883    0.43870   1.00
H2       0.93672    0.19221    0.38564   1.00
H2       0.96532    0.19750    0.34380   1.00
H2       0.97352    0.15767    0.37572   1.00
H2       1.00862    0.21626    0.46163   1.00
H2       0.96308    0.19596    0.45104   1.00
H2       1.00550    0.16798    0.44287   1.00
H2       1.05514    0.13612    0.39455   1.00
H2       1.08708    0.12363    0.35605   1.00
H2       1.10332    0.15488    0.39229   1.00
H2       1.01902    0.14188    0.32712   1.00
H2       1.02068    0.18589    0.30140   1.00
H2       1.05828    0.15192    0.29567   1.00
H2       1.01688    0.33515    0.27439   1.00
H2       1.01809    0.38632    0.27368   1.00
H2       1.03048    0.36133    0.31658   1.00
H2       0.95125    0.38123    0.24489   1.00
H2       0.94574    0.33092    0.25222   1.00
H2       0.91122    0.36401    0.27138   1.00
H2       0.85202    0.31165    0.38155   1.00
H2       0.89435    0.28279    0.38232   1.00
H2       0.89035    0.32343    0.41389   1.00
H2       0.89416    0.40136    0.33567   1.00
H2       0.85212    0.37969    0.35537   1.00
H2       0.89085    0.39286    0.38660   1.00
H2       1.03656    0.33927    0.38067   1.00
H2       1.02381    0.34952    0.42963   1.00
H2       1.00834    0.30605    0.40773   1.00
H2       0.99044    0.41119    0.41846   1.00
H2       1.00622    0.40965    0.36947   1.00
H2       0.95657    0.41806    0.38077   1.00
C4       0.75281    -0.02084   0.25117   1.00
C4       0.75255    0.02088    0.25049   1.00
C3       0.78690    -0.04364   0.24529   1.00
C3       0.78553    0.04384    0.24037   1.00
C3       0.71704    -0.04123   0.25747   1.00
C3       0.71756    0.04114    0.26053   1.00
C2       0.75057    -0.10512   0.25105   1.00
C2       0.74943    0.10512    0.24895   1.00
C3       0.78581    -0.08462   0.24500   1.00
C3       0.78414    0.08481    0.23996   1.00
C3       0.71667    -0.08258   0.25781   1.00
C3       0.71631    0.08238    0.25832   1.00
H1       0.81355    -0.03115   0.24117   1.00
H1       0.81146    0.03148    0.23275   1.00
C5       0.68189    -0.02020   0.26357   1.00
C5       0.68392    0.02020    0.27238   1.00
H1       0.81134    -0.09955   0.24031   1.00
H1       0.80899    0.09990    0.23274   1.00
H1       0.69100    -0.09680   0.26344   1.00
H1       0.69038    0.09632    0.26317   1.00
O3       0.64668    -0.03961   0.26312   1.00
O3       0.65261    0.03901    0.28948   1.00
Si1      0.62170    -0.04247   0.22264   1.00
Si1      0.65353    0.04721    0.33638   1.00
C6       0.58587    -0.07538   0.23957   1.00
C6       0.60159    0.00402    0.21365   1.00
C6       0.64855    -0.06253   0.18351   1.00
C6       0.69551    0.03307    0.36283   1.00
C6       0.64777    0.09802    0.33942   1.00
C6       0.61164    0.02523    0.35649   1.00
C6       0.60145    -0.11194   0.26224   1.00
H2       0.57045    -0.05791   0.26131   1.00
C6       0.55344    -0.09147   0.21149   1.00
H2       0.60033    0.01642    0.24295   1.00
C6       0.62572    0.03366    0.18867   1.00
C6       0.55899    0.00664    0.19739   1.00
H2       0.66171    -0.08831   0.19692   1.00
C6       0.62487    -0.07772   0.14746   1.00
C6       0.68295    -0.03849   0.16499   1.00
C6       0.70827    -0.01071   0.36106   1.00
C6       0.73382    0.05775    0.35921   1.00
H2       0.68641    0.03788    0.39297   1.00
H2       0.67530    0.10949    0.32827   1.00
C6       0.61539    0.11622    0.31279   1.00
C6       0.64214    0.11607    0.38095   1.00
H2       0.58839    0.04625    0.35078   1.00
C6       0.59769    -0.01336   0.33685   1.00
C6       0.61089    0.01756    0.40154   1.00
H2       0.61981    -0.10346   0.28688   1.00
H2       0.61863    -0.13090   0.24320   1.00
H2       0.57743    -0.12917   0.27425   1.00
H2       0.52631    -0.09608   0.22765   1.00
H2       0.54697    -0.07178   0.18748   1.00
H2       0.56130    -0.11964   0.19883   1.00
H2       0.61436    0.06328    0.19221   1.00
H2       0.65620    0.03468    0.19750   1.00
H2       0.62428    0.02648    0.15767   1.00
H2       0.53837    -0.00862   0.21626   1.00
H2       0.54896    0.03692    0.19596   1.00
H2       0.55713    -0.00550   0.16798   1.00
H2       0.60545    -0.05514   0.13612   1.00
H2       0.64395    -0.08708   0.12363   1.00
H2       0.60771    -0.10332   0.15488   1.00
H2       0.67288    -0.01902   0.14188   1.00
H2       0.69860    -0.02068   0.18589   1.00
H2       0.70433    -0.05828   0.15192   1.00
H2       0.72561    -0.01688   0.33515   1.00
H2       0.72632    -0.01809   0.38632   1.00
H2       0.68342    -0.03048   0.36133   1.00
H2       0.75511    0.04875    0.38123   1.00
H2       0.74778    0.05426    0.33092   1.00
H2       0.72862    0.08878    0.36401   1.00
H2       0.61845    0.14798    0.31165   1.00
H2       0.61768    0.10565    0.28279   1.00
H2       0.58611    0.10965    0.32343   1.00
H2       0.66433    0.10584    0.40136   1.00
H2       0.64463    0.14788    0.37969   1.00
H2       0.61340    0.10915    0.39286   1.00
H2       0.61933    -0.03656   0.33927   1.00
H2       0.57037    -0.02381   0.34952   1.00
H2       0.59227    -0.00834   0.30605   1.00
H2       0.58154    0.00956    0.41119   1.00
H2       0.63053    -0.00622   0.40965   1.00
H2       0.61923    0.04343    0.41806   1.00
C4       0.75117    0.25281    -0.02084   1.00
C4       0.75049    0.25255    0.02088   1.00
C3       0.74529    0.28690    -0.04364   1.00
C3       0.74037    0.28553    0.04384   1.00
C3       0.75747    0.21704    -0.04123   1.00
C3       0.76053    0.21756    0.04114   1.00
C2       0.75105    0.25057    -0.10512   1.00
C2       0.74895    0.24943    0.10512   1.00
C3       0.74500    0.28581    -0.08462   1.00
C3       0.73996    0.28414    0.08481   1.00
C3       0.75781    0.21667    -0.08258   1.00
C3       0.75832    0.21631    0.08238   1.00
H1       0.74117    0.31355    -0.03115   1.00
H1       0.73275    0.31146    0.03148   1.00
C5       0.76357    0.18189    -0.02020   1.00
C5       0.77238    0.18392    0.02020   1.00
H1       0.74031    0.31134    -0.09955   1.00
H1       0.73274    0.30899    0.09990   1.00
H1       0.76344    0.19100    -0.09680   1.00
H1       0.76317    0.19038    0.09632   1.00
O3       0.76312    0.14668    -0.03961   1.00
O3       0.78948    0.15261    0.03901   1.00
Si1      0.72264    0.12170    -0.04247   1.00
Si1      0.83638    0.15353    0.04721   1.00
C6       0.73957    0.08587    -0.07538   1.00
C6       0.71365    0.10159    0.00402   1.00
C6       0.68351    0.14855    -0.06253   1.00
C6       0.86283    0.19551    0.03307   1.00
C6       0.83942    0.14777    0.09802   1.00
C6       0.85649    0.11164    0.02523   1.00
C6       0.76224    0.10145    -0.11194   1.00
H2       0.76131    0.07045    -0.05791   1.00
C6       0.71149    0.05344    -0.09147   1.00
H2       0.74295    0.10033    0.01642   1.00
C6       0.68867    0.12572    0.03366   1.00
C6       0.69739    0.05899    0.00664   1.00
H2       0.69692    0.16171    -0.08831   1.00
C6       0.64746    0.12487    -0.07772   1.00
C6       0.66499    0.18295    -0.03849   1.00
C6       0.86106    0.20827    -0.01071   1.00
C6       0.85921    0.23382    0.05775   1.00
H2       0.89297    0.18641    0.03788   1.00
H2       0.82827    0.17530    0.10949   1.00
C6       0.81279    0.11539    0.11622   1.00
C6       0.88095    0.14214    0.11607   1.00
H2       0.85078    0.08839    0.04625   1.00
C6       0.83685    0.09769    -0.01336   1.00
C6       0.90154    0.11089    0.01756   1.00
H2       0.78688    0.11981    -0.10346   1.00
H2       0.74320    0.11863    -0.13090   1.00
H2       0.77425    0.07743    -0.12917   1.00
H2       0.72765    0.02631    -0.09608   1.00
H2       0.68748    0.04697    -0.07178   1.00
H2       0.69883    0.06130    -0.11964   1.00
H2       0.69221    0.11436    0.06328   1.00
H2       0.69750    0.15620    0.03468   1.00
H2       0.65767    0.12428    0.02648   1.00
H2       0.71626    0.03837    -0.00862   1.00
H2       0.69596    0.04896    0.03692   1.00
H2       0.66798    0.05713    -0.00550   1.00
H2       0.63612    0.10545    -0.05514   1.00
H2       0.62363    0.14395    -0.08708   1.00
H2       0.65488    0.10771    -0.10332   1.00
H2       0.64188    0.17288    -0.01902   1.00
H2       0.68589    0.19860    -0.02068   1.00
H2       0.65192    0.20433    -0.05828   1.00
H2       0.83515    0.22561    -0.01688   1.00
H2       0.88632    0.22632    -0.01809   1.00
H2       0.86133    0.18342    -0.03048   1.00
H2       0.88123    0.25511    0.04875   1.00
H2       0.83092    0.24778    0.05426   1.00
H2       0.86401    0.22862    0.08878   1.00
H2       0.81165    0.11845    0.14798   1.00
H2       0.78279    0.11768    0.10565   1.00
H2       0.82343    0.08611    0.10965   1.00
H2       0.90136    0.16433    0.10584   1.00
H2       0.87969    0.14463    0.14788   1.00
H2       0.89286    0.11340    0.10915   1.00
H2       0.83927    0.11933    -0.03656   1.00
H2       0.84952    0.07037    -0.02381   1.00
H2       0.80605    0.09227    -0.00834   1.00
H2       0.91119    0.08154    0.00956   1.00
H2       0.90965    0.13053    -0.00622   1.00
H2       0.91806    0.11923    0.04343   1.00
C4       1.00117    0.99719    1.27084   1.00
C4       1.00049    0.99745    1.22912   1.00
C3       0.99529    0.96310    1.29364   1.00
C3       0.99037    0.96447    1.20616   1.00
C3       1.00747    1.03296    1.29123   1.00
C3       1.01053    1.03244    1.20886   1.00
C2       1.00105    0.99943    1.35512   1.00
C2       0.99895    1.00057    1.14488   1.00
C3       0.99500    0.96419    1.33462   1.00
C3       0.98996    0.96586    1.16519   1.00
C3       1.00781    1.03333    1.33258   1.00
C3       1.00832    1.03369    1.16762   1.00
H1       0.99117    0.93645    1.28115   1.00
H1       0.98275    0.93854    1.21852   1.00
C5       1.01357    1.06811    1.27020   1.00
C5       1.02238    1.06608    1.22980   1.00
H1       0.99031    0.93866    1.34955   1.00
H1       0.98274    0.94101    1.15010   1.00
H1       1.01344    1.05900    1.34680   1.00
H1       1.01317    1.05962    1.15368   1.00
O3       1.01312    1.10332    1.28961   1.00
O3       1.03948    1.09739    1.21099   1.00
Si1      0.97264    1.12830    1.29247   1.00
Si1      1.08638    1.09647    1.20279   1.00
C6       0.98957    1.16413    1.32538   1.00
C6       0.96365    1.14841    1.24598   1.00
C6       0.93351    1.10145    1.31253   1.00
C6       1.11283    1.05449    1.21693   1.00
C6       1.08942    1.10223    1.15198   1.00
C6       1.10649    1.13836    1.22477   1.00
C6       1.01224    1.14855    1.36194   1.00
H2       1.01131    1.17955    1.30791   1.00
C6       0.96149    1.19656    1.34147   1.00
H2       0.99295    1.14967    1.23358   1.00
C6       0.93867    1.12428    1.21634   1.00
C6       0.94739    1.19101    1.24336   1.00
H2       0.94692    1.08829    1.33831   1.00
C6       0.89746    1.12513    1.32772   1.00
C6       0.91499    1.06705    1.28849   1.00
C6       1.11106    1.04173    1.26071   1.00
C6       1.10921    1.01618    1.19225   1.00
H2       1.14297    1.06359    1.21212   1.00
H2       1.07827    1.07470    1.14051   1.00
C6       1.06279    1.13461    1.13378   1.00
C6       1.13095    1.10786    1.13393   1.00
H2       1.10078    1.16161    1.20375   1.00
C6       1.08685    1.15231    1.26336   1.00
C6       1.15154    1.13911    1.23244   1.00
H2       1.03688    1.13019    1.35346   1.00
H2       0.99320    1.13137    1.38090   1.00
H2       1.02425    1.17257    1.37917   1.00
H2       0.97765    1.22369    1.34608   1.00
H2       0.93748    1.20303    1.32178   1.00
H2       0.94883    1.18870    1.36964   1.00
H2       0.94221    1.13564    1.18672   1.00
H2       0.94750    1.09380    1.21532   1.00
H2       0.90767    1.12572    1.22352   1.00
H2       0.96626    1.21163    1.25862   1.00
H2       0.94596    1.20104    1.21308   1.00
H2       0.91798    1.19287    1.25550   1.00
H2       0.88612    1.14455    1.30514   1.00
H2       0.87363    1.10605    1.33708   1.00
H2       0.90488    1.14229    1.35332   1.00
H2       0.89188    1.07712    1.26902   1.00
H2       0.93589    1.05140    1.27068   1.00
H2       0.90192    1.04567    1.30828   1.00
H2       1.08515    1.02439    1.26688   1.00
H2       1.13632    1.02368    1.26809   1.00
H2       1.11133    1.06658    1.28048   1.00
H2       1.13123    0.99489    1.20125   1.00
H2       1.08092    1.00222    1.19574   1.00
H2       1.11401    1.02138    1.16122   1.00
H2       1.06165    1.13155    1.10202   1.00
H2       1.03279    1.13232    1.14435   1.00
H2       1.07343    1.16389    1.14035   1.00
H2       1.15136    1.08567    1.14416   1.00
H2       1.12969    1.10537    1.10212   1.00
H2       1.14286    1.13660    1.14085   1.00
H2       1.08927    1.13067    1.28656   1.00
H2       1.09952    1.17963    1.27381   1.00
H2       1.05605    1.15773    1.25834   1.00
H2       1.16119    1.16846    1.24044   1.00
H2       1.15965    1.11947    1.25622   1.00
H2       1.16806    1.13077    1.20657   1.00
C4       0.99719    1.27084    1.00117   1.00
C4       0.99745    1.22912    1.00049   1.00
C3       0.96310    1.29364    0.99529   1.00
C3       0.96447    1.20616    0.99037   1.00
C3       1.03296    1.29123    1.00747   1.00
C3       1.03244    1.20886    1.01053   1.00
C2       0.99943    1.35512    1.00105   1.00
C2       1.00057    1.14488    0.99895   1.00
C3       0.96419    1.33462    0.99500   1.00
C3       0.96586    1.16519    0.98996   1.00
C3       1.03333    1.33258    1.00781   1.00
C3       1.03369    1.16762    1.00832   1.00
H1       0.93645    1.28115    0.99117   1.00
H1       0.93854    1.21852    0.98275   1.00
C5       1.06811    1.27020    1.01357   1.00
C5       1.06608    1.22980    1.02238   1.00
H1       0.93866    1.34955    0.99031   1.00
H1       0.94101    1.15010    0.98274   1.00
H1       1.05900    1.34680    1.01344   1.00
H1       1.05962    1.15368    1.01317   1.00
O3       1.10332    1.28961    1.01312   1.00
O3       1.09739    1.21099    1.03948   1.00
Si1      1.12830    1.29247    0.97264   1.00
Si1      1.09647    1.20279    1.08638   1.00
C6       1.16413    1.32538    0.98957   1.00
C6       1.14841    1.24598    0.96365   1.00
C6       1.10145    1.31253    0.93351   1.00
C6       1.05449    1.21693    1.11283   1.00
C6       1.10223    1.15198    1.08942   1.00
C6       1.13836    1.22477    1.10649   1.00
C6       1.14855    1.36194    1.01224   1.00
H2       1.17955    1.30791    1.01131   1.00
C6       1.19656    1.34147    0.96149   1.00
H2       1.14967    1.23358    0.99295   1.00
C6       1.12428    1.21634    0.93867   1.00
C6       1.19101    1.24336    0.94739   1.00
H2       1.08829    1.33831    0.94692   1.00
C6       1.12513    1.32772    0.89746   1.00
C6       1.06705    1.28849    0.91499   1.00
C6       1.04173    1.26071    1.11106   1.00
C6       1.01618    1.19225    1.10921   1.00
H2       1.06359    1.21212    1.14297   1.00
H2       1.07470    1.14051    1.07827   1.00
C6       1.13461    1.13378    1.06279   1.00
C6       1.10786    1.13393    1.13095   1.00
H2       1.16161    1.20375    1.10078   1.00
C6       1.15231    1.26336    1.08685   1.00
C6       1.13911    1.23244    1.15154   1.00
H2       1.13019    1.35346    1.03688   1.00
H2       1.13137    1.38090    0.99320   1.00
H2       1.17257    1.37917    1.02425   1.00
H2       1.22369    1.34608    0.97765   1.00
H2       1.20303    1.32178    0.93748   1.00
H2       1.18870    1.36964    0.94883   1.00
H2       1.13564    1.18672    0.94221   1.00
H2       1.09380    1.21532    0.94750   1.00
H2       1.12572    1.22352    0.90767   1.00
H2       1.21163    1.25862    0.96626   1.00
H2       1.20104    1.21308    0.94596   1.00
H2       1.19287    1.25550    0.91798   1.00
H2       1.14455    1.30514    0.88612   1.00
H2       1.10605    1.33708    0.87363   1.00
H2       1.14229    1.35332    0.90488   1.00
H2       1.07712    1.26902    0.89188   1.00
H2       1.05140    1.27068    0.93589   1.00
H2       1.04567    1.30828    0.90192   1.00
H2       1.02439    1.26688    1.08515   1.00
H2       1.02368    1.26809    1.13632   1.00
H2       1.06658    1.28048    1.11133   1.00
H2       0.99489    1.20125    1.13123   1.00
H2       1.00222    1.19574    1.08092   1.00
H2       1.02138    1.16122    1.11401   1.00
H2       1.13155    1.10202    1.06165   1.00
H2       1.13232    1.14435    1.03279   1.00
H2       1.16389    1.14035    1.07343   1.00
H2       1.08567    1.14416    1.15136   1.00
H2       1.10537    1.10212    1.12969   1.00
H2       1.13660    1.14085    1.14286   1.00
H2       1.13067    1.28656    1.08927   1.00
H2       1.17963    1.27381    1.09952   1.00
H2       1.15773    1.25834    1.05605   1.00
H2       1.16846    1.24044    1.16119   1.00
H2       1.11947    1.25622    1.15965   1.00
H2       1.13077    1.20657    1.16806   1.00
C4       0.72916    1.00117    1.00281   1.00
C4       0.77088    1.00049    1.00255   1.00
C3       0.70636    0.99529    1.03690   1.00
C3       0.79384    0.99037    1.03553   1.00
C3       0.70877    1.00747    0.96704   1.00
C3       0.79114    1.01053    0.96756   1.00
C2       0.64488    1.00105    1.00057   1.00
C2       0.85512    0.99895    0.99943   1.00
C3       0.66538    0.99500    1.03581   1.00
C3       0.83481    0.98996    1.03414   1.00
C3       0.66742    1.00781    0.96667   1.00
C3       0.83238    1.00832    0.96631   1.00
H1       0.71885    0.99117    1.06355   1.00
H1       0.78148    0.98275    1.06146   1.00
C5       0.72980    1.01357    0.93189   1.00
C5       0.77020    1.02238    0.93392   1.00
H1       0.65045    0.99031    1.06134   1.00
H1       0.84990    0.98274    1.05899   1.00
H1       0.65320    1.01344    0.94100   1.00
H1       0.84632    1.01317    0.94038   1.00
O3       0.71039    1.01312    0.89668   1.00
O3       0.78901    1.03948    0.90261   1.00
Si1      0.70753    0.97264    0.87170   1.00
Si1      0.79721    1.08638    0.90353   1.00
C6       0.67462    0.98957    0.83587   1.00
C6       0.75402    0.96365    0.85159   1.00
C6       0.68747    0.93351    0.89855   1.00
C6       0.78307    1.11283    0.94551   1.00
C6       0.84802    1.08942    0.89777   1.00
C6       0.77523    1.10649    0.86164   1.00
C6       0.63806    1.01224    0.85145   1.00
H2       0.69209    1.01131    0.82045   1.00
C6       0.65853    0.96149    0.80344   1.00
H2       0.76642    0.99295    0.85033   1.00
C6       0.78366    0.93867    0.87572   1.00
C6       0.75664    0.94739    0.80899   1.00
H2       0.66169    0.94692    0.91171   1.00
C6       0.67228    0.89746    0.87487   1.00
C6       0.71151    0.91499    0.93295   1.00
C6       0.73929    1.11106    0.95827   1.00
C6       0.80775    1.10921    0.98382   1.00
H2       0.78788    1.14297    0.93641   1.00
H2       0.85949    1.07827    0.92530   1.00
C6       0.86622    1.06279    0.86539   1.00
C6       0.86607    1.13095    0.89214   1.00
H2       0.79625    1.10078    0.83839   1.00
C6       0.73664    1.08685    0.84769   1.00
C6       0.76756    1.15154    0.86089   1.00
H2       0.64654    1.03688    0.86981   1.00
H2       0.61910    0.99320    0.86863   1.00
H2       0.62083    1.02425    0.82743   1.00
H2       0.65392    0.97765    0.77631   1.00
H2       0.67822    0.93748    0.79697   1.00
H2       0.63036    0.94883    0.81130   1.00
H2       0.81328    0.94221    0.86436   1.00
H2       0.78468    0.94750    0.90620   1.00
H2       0.77648    0.90767    0.87428   1.00
H2       0.74138    0.96626    0.78837   1.00
H2       0.78692    0.94596    0.79896   1.00
H2       0.74450    0.91798    0.80713   1.00
H2       0.69486    0.88612    0.85545   1.00
H2       0.66292    0.87363    0.89395   1.00
H2       0.64668    0.90488    0.85771   1.00
H2       0.73098    0.89188    0.92288   1.00
H2       0.72932    0.93589    0.94860   1.00
H2       0.69172    0.90192    0.95433   1.00
H2       0.73312    1.08515    0.97561   1.00
H2       0.73191    1.13632    0.97632   1.00
H2       0.71952    1.11133    0.93342   1.00
H2       0.79875    1.13123    1.00511   1.00
H2       0.80426    1.08092    0.99778   1.00
H2       0.83878    1.11401    0.97862   1.00
H2       0.89798    1.06165    0.86845   1.00
H2       0.85565    1.03279    0.86768   1.00
H2       0.85965    1.07343    0.83611   1.00
H2       0.85584    1.15136    0.91433   1.00
H2       0.89788    1.12969    0.89463   1.00
H2       0.85915    1.14286    0.86340   1.00
H2       0.71344    1.08927    0.86933   1.00
H2       0.72619    1.09952    0.82037   1.00
H2       0.74166    1.05605    0.84227   1.00
H2       0.75956    1.16119    0.83154   1.00
H2       0.74378    1.15965    0.88053   1.00
H2       0.79343    1.16806    0.86923   1.00
C4       1.27084    1.00117    0.99719   1.00
C4       1.22912    1.00049    0.99745   1.00
C3       1.29364    0.99529    0.96310   1.00
C3       1.20616    0.99037    0.96447   1.00
C3       1.29123    1.00747    1.03296   1.00
C3       1.20886    1.01053    1.03244   1.00
C2       1.35512    1.00105    0.99943   1.00
C2       1.14488    0.99895    1.00057   1.00
C3       1.33462    0.99500    0.96419   1.00
C3       1.16519    0.98996    0.96586   1.00
C3       1.33258    1.00781    1.03333   1.00
C3       1.16762    1.00832    1.03369   1.00
H1       1.28115    0.99117    0.93645   1.00
H1       1.21852    0.98275    0.93854   1.00
C5       1.27020    1.01357    1.06811   1.00
C5       1.22980    1.02238    1.06608   1.00
H1       1.34955    0.99031    0.93866   1.00
H1       1.15010    0.98274    0.94101   1.00
H1       1.34680    1.01344    1.05900   1.00
H1       1.15368    1.01317    1.05962   1.00
O3       1.28961    1.01312    1.10332   1.00
O3       1.21099    1.03948    1.09739   1.00
Si1      1.29247    0.97264    1.12830   1.00
Si1      1.20279    1.08638    1.09647   1.00
C6       1.32538    0.98957    1.16413   1.00
C6       1.24598    0.96365    1.14841   1.00
C6       1.31253    0.93351    1.10145   1.00
C6       1.21693    1.11283    1.05449   1.00
C6       1.15198    1.08942    1.10223   1.00
C6       1.22477    1.10649    1.13836   1.00
C6       1.36194    1.01224    1.14855   1.00
H2       1.30791    1.01131    1.17955   1.00
C6       1.34147    0.96149    1.19656   1.00
H2       1.23358    0.99295    1.14967   1.00
C6       1.21634    0.93867    1.12428   1.00
C6       1.24336    0.94739    1.19101   1.00
H2       1.33831    0.94692    1.08829   1.00
C6       1.32772    0.89746    1.12513   1.00
C6       1.28849    0.91499    1.06705   1.00
C6       1.26071    1.11106    1.04173   1.00
C6       1.19225    1.10921    1.01618   1.00
H2       1.21212    1.14297    1.06359   1.00
H2       1.14051    1.07827    1.07470   1.00
C6       1.13378    1.06279    1.13461   1.00
C6       1.13393    1.13095    1.10786   1.00
H2       1.20375    1.10078    1.16161   1.00
C6       1.26336    1.08685    1.15231   1.00
C6       1.23244    1.15154    1.13911   1.00
H2       1.35346    1.03688    1.13019   1.00
H2       1.38090    0.99320    1.13137   1.00
H2       1.37917    1.02425    1.17257   1.00
H2       1.34608    0.97765    1.22369   1.00
H2       1.32178    0.93748    1.20303   1.00
H2       1.36964    0.94883    1.18870   1.00
H2       1.18672    0.94221    1.13564   1.00
H2       1.21532    0.94750    1.09380   1.00
H2       1.22352    0.90767    1.12572   1.00
H2       1.25862    0.96626    1.21163   1.00
H2       1.21308    0.94596    1.20104   1.00
H2       1.25550    0.91798    1.19287   1.00
H2       1.30514    0.88612    1.14455   1.00
H2       1.33708    0.87363    1.10605   1.00
H2       1.35332    0.90488    1.14229   1.00
H2       1.26902    0.89188    1.07712   1.00
H2       1.27068    0.93589    1.05140   1.00
H2       1.30828    0.90192    1.04567   1.00
H2       1.26688    1.08515    1.02439   1.00
H2       1.26809    1.13632    1.02368   1.00
H2       1.28048    1.11133    1.06658   1.00
H2       1.20125    1.13123    0.99489   1.00
H2       1.19574    1.08092    1.00222   1.00
H2       1.16122    1.11401    1.02138   1.00
H2       1.10202    1.06165    1.13155   1.00
H2       1.14435    1.03279    1.13232   1.00
H2       1.14035    1.07343    1.16389   1.00
H2       1.14416    1.15136    1.08567   1.00
H2       1.10212    1.12969    1.10537   1.00
H2       1.14085    1.14286    1.13660   1.00
H2       1.28656    1.08927    1.13067   1.00
H2       1.27381    1.09952    1.17963   1.00
H2       1.25834    1.05605    1.15773   1.00
H2       1.24044    1.16119    1.16846   1.00
H2       1.25622    1.15965    1.11947   1.00
H2       1.20657    1.16806    1.13077   1.00
C4       1.00281    0.72916    1.00117   1.00
C4       1.00255    0.77088    1.00049   1.00
C3       1.03690    0.70636    0.99529   1.00
C3       1.03553    0.79384    0.99037   1.00
C3       0.96704    0.70877    1.00747   1.00
C3       0.96756    0.79114    1.01053   1.00
C2       1.00057    0.64488    1.00105   1.00
C2       0.99943    0.85512    0.99895   1.00
C3       1.03581    0.66538    0.99500   1.00
C3       1.03414    0.83481    0.98996   1.00
C3       0.96667    0.66742    1.00781   1.00
C3       0.96631    0.83238    1.00832   1.00
H1       1.06355    0.71885    0.99117   1.00
H1       1.06146    0.78148    0.98275   1.00
C5       0.93189    0.72980    1.01357   1.00
C5       0.93392    0.77020    1.02238   1.00
H1       1.06134    0.65045    0.99031   1.00
H1       1.05899    0.84990    0.98274   1.00
H1       0.94100    0.65320    1.01344   1.00
H1       0.94038    0.84632    1.01317   1.00
O3       0.89668    0.71039    1.01312   1.00
O3       0.90261    0.78901    1.03948   1.00
Si1      0.87170    0.70753    0.97264   1.00
Si1      0.90353    0.79721    1.08638   1.00
C6       0.83587    0.67462    0.98957   1.00
C6       0.85159    0.75402    0.96365   1.00
C6       0.89855    0.68747    0.93351   1.00
C6       0.94551    0.78307    1.11283   1.00
C6       0.89777    0.84802    1.08942   1.00
C6       0.86164    0.77523    1.10649   1.00
C6       0.85145    0.63806    1.01224   1.00
H2       0.82045    0.69209    1.01131   1.00
C6       0.80344    0.65853    0.96149   1.00
H2       0.85033    0.76642    0.99295   1.00
C6       0.87572    0.78366    0.93867   1.00
C6       0.80899    0.75664    0.94739   1.00
H2       0.91171    0.66169    0.94692   1.00
C6       0.87487    0.67228    0.89746   1.00
C6       0.93295    0.71151    0.91499   1.00
C6       0.95827    0.73929    1.11106   1.00
C6       0.98382    0.80775    1.10921   1.00
H2       0.93641    0.78788    1.14297   1.00
H2       0.92530    0.85949    1.07827   1.00
C6       0.86539    0.86622    1.06279   1.00
C6       0.89214    0.86607    1.13095   1.00
H2       0.83839    0.79625    1.10078   1.00
C6       0.84769    0.73664    1.08685   1.00
C6       0.86089    0.76756    1.15154   1.00
H2       0.86981    0.64654    1.03688   1.00
H2       0.86863    0.61910    0.99320   1.00
H2       0.82743    0.62083    1.02425   1.00
H2       0.77631    0.65392    0.97765   1.00
H2       0.79697    0.67822    0.93748   1.00
H2       0.81130    0.63036    0.94883   1.00
H2       0.86436    0.81328    0.94221   1.00
H2       0.90620    0.78468    0.94750   1.00
H2       0.87428    0.77648    0.90767   1.00
H2       0.78837    0.74138    0.96626   1.00
H2       0.79896    0.78692    0.94596   1.00
H2       0.80713    0.74450    0.91798   1.00
H2       0.85545    0.69486    0.88612   1.00
H2       0.89395    0.66292    0.87363   1.00
H2       0.85771    0.64668    0.90488   1.00
H2       0.92288    0.73098    0.89188   1.00
H2       0.94860    0.72932    0.93589   1.00
H2       0.95433    0.69172    0.90192   1.00
H2       0.97561    0.73312    1.08515   1.00
H2       0.97632    0.73191    1.13632   1.00
H2       0.93342    0.71952    1.11133   1.00
H2       1.00511    0.79875    1.13123   1.00
H2       0.99778    0.80426    1.08092   1.00
H2       0.97862    0.83878    1.11401   1.00
H2       0.86845    0.89798    1.06165   1.00
H2       0.86768    0.85565    1.03279   1.00
H2       0.83611    0.85965    1.07343   1.00
H2       0.91433    0.85584    1.15136   1.00
H2       0.89463    0.89788    1.12969   1.00
H2       0.86340    0.85915    1.14286   1.00
H2       0.86933    0.71344    1.08927   1.00
H2       0.82037    0.72619    1.09952   1.00
H2       0.84227    0.74166    1.05605   1.00
H2       0.83154    0.75956    1.16119   1.00
H2       0.88053    0.74378    1.15965   1.00
H2       0.86923    0.79343    1.16806   1.00
C4       1.00117    1.00281    0.72916   1.00
C4       1.00049    1.00255    0.77088   1.00
C3       0.99529    1.03690    0.70636   1.00
C3       0.99037    1.03553    0.79384   1.00
C3       1.00747    0.96704    0.70877   1.00
C3       1.01053    0.96756    0.79114   1.00
C2       1.00105    1.00057    0.64488   1.00
C2       0.99895    0.99943    0.85512   1.00
C3       0.99500    1.03581    0.66538   1.00
C3       0.98996    1.03414    0.83481   1.00
C3       1.00781    0.96667    0.66742   1.00
C3       1.00832    0.96631    0.83238   1.00
H1       0.99117    1.06355    0.71885   1.00
H1       0.98275    1.06146    0.78148   1.00
C5       1.01357    0.93189    0.72980   1.00
C5       1.02238    0.93392    0.77020   1.00
H1       0.99031    1.06134    0.65045   1.00
H1       0.98274    1.05899    0.84990   1.00
H1       1.01344    0.94100    0.65320   1.00
H1       1.01317    0.94038    0.84632   1.00
O3       1.01312    0.89668    0.71039   1.00
O3       1.03948    0.90261    0.78901   1.00
Si1      0.97264    0.87170    0.70753   1.00
Si1      1.08638    0.90353    0.79721   1.00
C6       0.98957    0.83587    0.67462   1.00
C6       0.96365    0.85159    0.75402   1.00
C6       0.93351    0.89855    0.68747   1.00
C6       1.11283    0.94551    0.78307   1.00
C6       1.08942    0.89777    0.84802   1.00
C6       1.10649    0.86164    0.77523   1.00
C6       1.01224    0.85145    0.63806   1.00
H2       1.01131    0.82045    0.69209   1.00
C6       0.96149    0.80344    0.65853   1.00
H2       0.99295    0.85033    0.76642   1.00
C6       0.93867    0.87572    0.78366   1.00
C6       0.94739    0.80899    0.75664   1.00
H2       0.94692    0.91171    0.66169   1.00
C6       0.89746    0.87487    0.67228   1.00
C6       0.91499    0.93295    0.71151   1.00
C6       1.11106    0.95827    0.73929   1.00
C6       1.10921    0.98382    0.80775   1.00
H2       1.14297    0.93641    0.78788   1.00
H2       1.07827    0.92530    0.85949   1.00
C6       1.06279    0.86539    0.86622   1.00
C6       1.13095    0.89214    0.86607   1.00
H2       1.10078    0.83839    0.79625   1.00
C6       1.08685    0.84769    0.73664   1.00
C6       1.15154    0.86089    0.76756   1.00
H2       1.03688    0.86981    0.64654   1.00
H2       0.99320    0.86863    0.61910   1.00
H2       1.02425    0.82743    0.62083   1.00
H2       0.97765    0.77631    0.65392   1.00
H2       0.93748    0.79697    0.67822   1.00
H2       0.94883    0.81130    0.63036   1.00
H2       0.94221    0.86436    0.81328   1.00
H2       0.94750    0.90620    0.78468   1.00
H2       0.90767    0.87428    0.77648   1.00
H2       0.96626    0.78837    0.74138   1.00
H2       0.94596    0.79896    0.78692   1.00
H2       0.91798    0.80713    0.74450   1.00
H2       0.88612    0.85545    0.69486   1.00
H2       0.87363    0.89395    0.66292   1.00
H2       0.90488    0.85771    0.64668   1.00
H2       0.89188    0.92288    0.73098   1.00
H2       0.93589    0.94860    0.72932   1.00
H2       0.90192    0.95433    0.69172   1.00
H2       1.08515    0.97561    0.73312   1.00
H2       1.13632    0.97632    0.73191   1.00
H2       1.11133    0.93342    0.71952   1.00
H2       1.13123    1.00511    0.79875   1.00
H2       1.08092    0.99778    0.80426   1.00
H2       1.11401    0.97862    0.83878   1.00
H2       1.06165    0.86845    0.89798   1.00
H2       1.03279    0.86768    0.85565   1.00
H2       1.07343    0.83611    0.85965   1.00
H2       1.15136    0.91433    0.85584   1.00
H2       1.12969    0.89463    0.89788   1.00
H2       1.14286    0.86340    0.85915   1.00
H2       1.08927    0.86933    0.71344   1.00
H2       1.09952    0.82037    0.72619   1.00
H2       1.05605    0.84227    0.74166   1.00
H2       1.16119    0.83154    0.75956   1.00
H2       1.15965    0.88053    0.74378   1.00
H2       1.16806    0.86923    0.79343   1.00
C4       0.50117    0.49719    1.27084   1.00
C4       0.50049    0.49745    1.22912   1.00
C3       0.49529    0.46310    1.29364   1.00
C3       0.49037    0.46447    1.20616   1.00
C3       0.50747    0.53296    1.29123   1.00
C3       0.51053    0.53244    1.20886   1.00
C2       0.50105    0.49943    1.35512   1.00
C2       0.49895    0.50057    1.14488   1.00
C3       0.49500    0.46419    1.33462   1.00
C3       0.48996    0.46586    1.16519   1.00
C3       0.50781    0.53333    1.33258   1.00
C3       0.50832    0.53369    1.16762   1.00
H1       0.49117    0.43645    1.28115   1.00
H1       0.48275    0.43854    1.21852   1.00
C5       0.51357    0.56811    1.27020   1.00
C5       0.52238    0.56608    1.22980   1.00
H1       0.49031    0.43866    1.34955   1.00
H1       0.48274    0.44101    1.15010   1.00
H1       0.51344    0.55900    1.34680   1.00
H1       0.51317    0.55962    1.15368   1.00
O3       0.51312    0.60332    1.28961   1.00
O3       0.53948    0.59739    1.21099   1.00
Si1      0.47264    0.62830    1.29247   1.00
Si1      0.58638    0.59647    1.20279   1.00
C6       0.48957    0.66413    1.32538   1.00
C6       0.46365    0.64841    1.24598   1.00
C6       0.43351    0.60145    1.31253   1.00
C6       0.61283    0.55449    1.21693   1.00
C6       0.58942    0.60223    1.15198   1.00
C6       0.60649    0.63836    1.22477   1.00
C6       0.51224    0.64855    1.36194   1.00
H2       0.51131    0.67955    1.30791   1.00
C6       0.46149    0.69656    1.34147   1.00
H2       0.49295    0.64967    1.23358   1.00
C6       0.43867    0.62428    1.21634   1.00
C6       0.44739    0.69101    1.24336   1.00
H2       0.44692    0.58829    1.33831   1.00
C6       0.39746    0.62513    1.32772   1.00
C6       0.41499    0.56705    1.28849   1.00
C6       0.61106    0.54173    1.26071   1.00
C6       0.60921    0.51618    1.19225   1.00
H2       0.64297    0.56359    1.21212   1.00
H2       0.57827    0.57470    1.14051   1.00
C6       0.56279    0.63461    1.13378   1.00
C6       0.63095    0.60786    1.13393   1.00
H2       0.60078    0.66161    1.20375   1.00
C6       0.58685    0.65231    1.26336   1.00
C6       0.65154    0.63911    1.23244   1.00
H2       0.53688    0.63019    1.35346   1.00
H2       0.49320    0.63137    1.38090   1.00
H2       0.52425    0.67257    1.37917   1.00
H2       0.47765    0.72369    1.34608   1.00
H2       0.43748    0.70303    1.32178   1.00
H2       0.44883    0.68870    1.36964   1.00
H2       0.44221    0.63564    1.18672   1.00
H2       0.44750    0.59380    1.21532   1.00
H2       0.40767    0.62572    1.22352   1.00
H2       0.46626    0.71163    1.25862   1.00
H2       0.44596    0.70104    1.21308   1.00
H2       0.41798    0.69287    1.25550   1.00
H2       0.38612    0.64455    1.30514   1.00
H2       0.37363    0.60605    1.33708   1.00
H2       0.40488    0.64229    1.35332   1.00
H2       0.39188    0.57712    1.26902   1.00
H2       0.43589    0.55140    1.27068   1.00
H2       0.40192    0.54567    1.30828   1.00
H2       0.58515    0.52439    1.26688   1.00
H2       0.63632    0.52368    1.26809   1.00
H2       0.61133    0.56658    1.28048   1.00
H2       0.63123    0.49489    1.20125   1.00
H2       0.58092    0.50222    1.19574   1.00
H2       0.61401    0.52138    1.16122   1.00
H2       0.56165    0.63155    1.10202   1.00
H2       0.53279    0.63232    1.14435   1.00
H2       0.57343    0.66389    1.14035   1.00
H2       0.65136    0.58567    1.14416   1.00
H2       0.62969    0.60537    1.10212   1.00
H2       0.64286    0.63660    1.14085   1.00
H2       0.58927    0.63067    1.28656   1.00
H2       0.59952    0.67963    1.27381   1.00
H2       0.55605    0.65773    1.25834   1.00
H2       0.66119    0.66846    1.24044   1.00
H2       0.65965    0.61947    1.25622   1.00
H2       0.66806    0.63077    1.20657   1.00
C4       0.49719    0.77084    1.00117   1.00
C4       0.49745    0.72912    1.00049   1.00
C3       0.46310    0.79364    0.99529   1.00
C3       0.46447    0.70616    0.99037   1.00
C3       0.53296    0.79123    1.00747   1.00
C3       0.53244    0.70886    1.01053   1.00
C2       0.49943    0.85512    1.00105   1.00
C2       0.50057    0.64488    0.99895   1.00
C3       0.46419    0.83462    0.99500   1.00
C3       0.46586    0.66519    0.98996   1.00
C3       0.53333    0.83258    1.00781   1.00
C3       0.53369    0.66762    1.00832   1.00
H1       0.43645    0.78115    0.99117   1.00
H1       0.43854    0.71852    0.98275   1.00
C5       0.56811    0.77020    1.01357   1.00
C5       0.56608    0.72980    1.02238   1.00
H1       0.43866    0.84955    0.99031   1.00
H1       0.44101    0.65010    0.98274   1.00
H1       0.55900    0.84680    1.01344   1.00
H1       0.55962    0.65368    1.01317   1.00
O3       0.60332    0.78961    1.01312   1.00
O3       0.59739    0.71099    1.03948   1.00
Si1      0.62830    0.79247    0.97264   1.00
Si1      0.59647    0.70279    1.08638   1.00
C6       0.66413    0.82538    0.98957   1.00
C6       0.64841    0.74598    0.96365   1.00
C6       0.60145    0.81253    0.93351   1.00
C6       0.55449    0.71693    1.11283   1.00
C6       0.60223    0.65198    1.08942   1.00
C6       0.63836    0.72477    1.10649   1.00
C6       0.64855    0.86194    1.01224   1.00
H2       0.67955    0.80791    1.01131   1.00
C6       0.69656    0.84147    0.96149   1.00
H2       0.64967    0.73358    0.99295   1.00
C6       0.62428    0.71634    0.93867   1.00
C6       0.69101    0.74336    0.94739   1.00
H2       0.58829    0.83831    0.94692   1.00
C6       0.62513    0.82772    0.89746   1.00
C6       0.56705    0.78849    0.91499   1.00
C6       0.54173    0.76071    1.11106   1.00
C6       0.51618    0.69225    1.10921   1.00
H2       0.56359    0.71212    1.14297   1.00
H2       0.57470    0.64051    1.07827   1.00
C6       0.63461    0.63378    1.06279   1.00
C6       0.60786    0.63393    1.13095   1.00
H2       0.66161    0.70375    1.10078   1.00
C6       0.65231    0.76336    1.08685   1.00
C6       0.63911    0.73244    1.15154   1.00
H2       0.63019    0.85346    1.03688   1.00
H2       0.63137    0.88090    0.99320   1.00
H2       0.67257    0.87917    1.02425   1.00
H2       0.72369    0.84608    0.97765   1.00
H2       0.70303    0.82178    0.93748   1.00
H2       0.68870    0.86964    0.94883   1.00
H2       0.63564    0.68672    0.94221   1.00
H2       0.59380    0.71532    0.94750   1.00
H2       0.62572    0.72352    0.90767   1.00
H2       0.71163    0.75862    0.96626   1.00
H2       0.70104    0.71308    0.94596   1.00
H2       0.69287    0.75550    0.91798   1.00
H2       0.64455    0.80514    0.88612   1.00
H2       0.60605    0.83708    0.87363   1.00
H2       0.64229    0.85332    0.90488   1.00
H2       0.57712    0.76902    0.89188   1.00
H2       0.55140    0.77068    0.93589   1.00
H2       0.54567    0.80828    0.90192   1.00
H2       0.52439    0.76688    1.08515   1.00
H2       0.52368    0.76809    1.13632   1.00
H2       0.56658    0.78048    1.11133   1.00
H2       0.49489    0.70125    1.13123   1.00
H2       0.50222    0.69574    1.08092   1.00
H2       0.52138    0.66122    1.11401   1.00
H2       0.63155    0.60202    1.06165   1.00
H2       0.63232    0.64435    1.03279   1.00
H2       0.66389    0.64035    1.07343   1.00
H2       0.58567    0.64416    1.15136   1.00
H2       0.60537    0.60212    1.12969   1.00
H2       0.63660    0.64085    1.14286   1.00
H2       0.63067    0.78656    1.08927   1.00
H2       0.67963    0.77381    1.09952   1.00
H2       0.65773    0.75834    1.05605   1.00
H2       0.66846    0.74044    1.16119   1.00
H2       0.61947    0.75622    1.15965   1.00
H2       0.63077    0.70657    1.16806   1.00
C4       0.22916    0.50117    1.00281   1.00
C4       0.27088    0.50049    1.00255   1.00
C3       0.20636    0.49529    1.03690   1.00
C3       0.29384    0.49037    1.03553   1.00
C3       0.20877    0.50747    0.96704   1.00
C3       0.29114    0.51053    0.96756   1.00
C2       0.14488    0.50105    1.00057   1.00
C2       0.35512    0.49895    0.99943   1.00
C3       0.16538    0.49500    1.03581   1.00
C3       0.33481    0.48996    1.03414   1.00
C3       0.16742    0.50781    0.96667   1.00
C3       0.33238    0.50832    0.96631   1.00
H1       0.21885    0.49117    1.06355   1.00
H1       0.28148    0.48275    1.06146   1.00
C5       0.22980    0.51357    0.93189   1.00
C5       0.27020    0.52238    0.93392   1.00
H1       0.15045    0.49031    1.06134   1.00
H1       0.34990    0.48274    1.05899   1.00
H1       0.15320    0.51344    0.94100   1.00
H1       0.34632    0.51317    0.94038   1.00
O3       0.21039    0.51312    0.89668   1.00
O3       0.28901    0.53948    0.90261   1.00
Si1      0.20753    0.47264    0.87170   1.00
Si1      0.29721    0.58638    0.90353   1.00
C6       0.17462    0.48957    0.83587   1.00
C6       0.25402    0.46365    0.85159   1.00
C6       0.18747    0.43351    0.89855   1.00
C6       0.28307    0.61283    0.94551   1.00
C6       0.34802    0.58942    0.89777   1.00
C6       0.27523    0.60649    0.86164   1.00
C6       0.13806    0.51224    0.85145   1.00
H2       0.19209    0.51131    0.82045   1.00
C6       0.15853    0.46149    0.80344   1.00
H2       0.26642    0.49295    0.85033   1.00
C6       0.28366    0.43867    0.87572   1.00
C6       0.25664    0.44739    0.80899   1.00
H2       0.16169    0.44692    0.91171   1.00
C6       0.17228    0.39746    0.87487   1.00
C6       0.21151    0.41499    0.93295   1.00
C6       0.23929    0.61106    0.95827   1.00
C6       0.30775    0.60921    0.98382   1.00
H2       0.28788    0.64297    0.93641   1.00
H2       0.35949    0.57827    0.92530   1.00
C6       0.36622    0.56279    0.86539   1.00
C6       0.36607    0.63095    0.89214   1.00
H2       0.29625    0.60078    0.83839   1.00
C6       0.23664    0.58685    0.84769   1.00
C6       0.26756    0.65154    0.86089   1.00
H2       0.14654    0.53688    0.86981   1.00
H2       0.11910    0.49320    0.86863   1.00
H2       0.12083    0.52425    0.82743   1.00
H2       0.15392    0.47765    0.77631   1.00
H2       0.17822    0.43748    0.79697   1.00
H2       0.13036    0.44883    0.81130   1.00
H2       0.31328    0.44221    0.86436   1.00
H2       0.28468    0.44750    0.90620   1.00
H2       0.27648    0.40767    0.87428   1.00
H2       0.24138    0.46626    0.78837   1.00
H2       0.28692    0.44596    0.79896   1.00
H2       0.24450    0.41798    0.80713   1.00
H2       0.19486    0.38612    0.85545   1.00
H2       0.16292    0.37363    0.89395   1.00
H2       0.14668    0.40488    0.85771   1.00
H2       0.23098    0.39188    0.92288   1.00
H2       0.22932    0.43589    0.94860   1.00
H2       0.19172    0.40192    0.95433   1.00
H2       0.23312    0.58515    0.97561   1.00
H2       0.23191    0.63632    0.97632   1.00
H2       0.21952    0.61133    0.93342   1.00
H2       0.29875    0.63123    1.00511   1.00
H2       0.30426    0.58092    0.99778   1.00
H2       0.33878    0.61401    0.97862   1.00
H2       0.39798    0.56165    0.86845   1.00
H2       0.35565    0.53279    0.86768   1.00
H2       0.35965    0.57343    0.83611   1.00
H2       0.35584    0.65136    0.91433   1.00
H2       0.39788    0.62969    0.89463   1.00
H2       0.35915    0.64286    0.86340   1.00
H2       0.21344    0.58927    0.86933   1.00
H2       0.22619    0.59952    0.82037   1.00
H2       0.24166    0.55605    0.84227   1.00
H2       0.25956    0.66119    0.83154   1.00
H2       0.24378    0.65965    0.88053   1.00
H2       0.29343    0.66806    0.86923   1.00
C4       0.77084    0.50117    0.99719   1.00
C4       0.72912    0.50049    0.99745   1.00
C3       0.79364    0.49529    0.96310   1.00
C3       0.70616    0.49037    0.96447   1.00
C3       0.79123    0.50747    1.03296   1.00
C3       0.70886    0.51053    1.03244   1.00
C2       0.85512    0.50105    0.99943   1.00
C2       0.64488    0.49895    1.00057   1.00
C3       0.83462    0.49500    0.96419   1.00
C3       0.66519    0.48996    0.96586   1.00
C3       0.83258    0.50781    1.03333   1.00
C3       0.66762    0.50832    1.03369   1.00
H1       0.78115    0.49117    0.93645   1.00
H1       0.71852    0.48275    0.93854   1.00
C5       0.77020    0.51357    1.06811   1.00
C5       0.72980    0.52238    1.06608   1.00
H1       0.84955    0.49031    0.93866   1.00
H1       0.65010    0.48274    0.94101   1.00
H1       0.84680    0.51344    1.05900   1.00
H1       0.65368    0.51317    1.05962   1.00
O3       0.78961    0.51312    1.10332   1.00
O3       0.71099    0.53948    1.09739   1.00
Si1      0.79247    0.47264    1.12830   1.00
Si1      0.70279    0.58638    1.09647   1.00
C6       0.82538    0.48957    1.16413   1.00
C6       0.74598    0.46365    1.14841   1.00
C6       0.81253    0.43351    1.10145   1.00
C6       0.71693    0.61283    1.05449   1.00
C6       0.65198    0.58942    1.10223   1.00
C6       0.72477    0.60649    1.13836   1.00
C6       0.86194    0.51224    1.14855   1.00
H2       0.80791    0.51131    1.17955   1.00
C6       0.84147    0.46149    1.19656   1.00
H2       0.73358    0.49295    1.14967   1.00
C6       0.71634    0.43867    1.12428   1.00
C6       0.74336    0.44739    1.19101   1.00
H2       0.83831    0.44692    1.08829   1.00
C6       0.82772    0.39746    1.12513   1.00
C6       0.78849    0.41499    1.06705   1.00
C6       0.76071    0.61106    1.04173   1.00
C6       0.69225    0.60921    1.01618   1.00
H2       0.71212    0.64297    1.06359   1.00
H2       0.64051    0.57827    1.07470   1.00
C6       0.63378    0.56279    1.13461   1.00
C6       0.63393    0.63095    1.10786   1.00
H2       0.70375    0.60078    1.16161   1.00
C6       0.76336    0.58685    1.15231   1.00
C6       0.73244    0.65154    1.13911   1.00
H2       0.85346    0.53688    1.13019   1.00
H2       0.88090    0.49320    1.13137   1.00
H2       0.87917    0.52425    1.17257   1.00
H2       0.84608    0.47765    1.22369   1.00
H2       0.82178    0.43748    1.20303   1.00
H2       0.86964    0.44883    1.18870   1.00
H2       0.68672    0.44221    1.13564   1.00
H2       0.71532    0.44750    1.09380   1.00
H2       0.72352    0.40767    1.12572   1.00
H2       0.75862    0.46626    1.21163   1.00
H2       0.71308    0.44596    1.20104   1.00
H2       0.75550    0.41798    1.19287   1.00
H2       0.80514    0.38612    1.14455   1.00
H2       0.83708    0.37363    1.10605   1.00
H2       0.85332    0.40488    1.14229   1.00
H2       0.76902    0.39188    1.07712   1.00
H2       0.77068    0.43589    1.05140   1.00
H2       0.80828    0.40192    1.04567   1.00
H2       0.76688    0.58515    1.02439   1.00
H2       0.76809    0.63632    1.02368   1.00
H2       0.78048    0.61133    1.06658   1.00
H2       0.70125    0.63123    0.99489   1.00
H2       0.69574    0.58092    1.00222   1.00
H2       0.66122    0.61401    1.02138   1.00
H2       0.60202    0.56165    1.13155   1.00
H2       0.64435    0.53279    1.13232   1.00
H2       0.64035    0.57343    1.16389   1.00
H2       0.64416    0.65136    1.08567   1.00
H2       0.60212    0.62969    1.10537   1.00
H2       0.64085    0.64286    1.13660   1.00
H2       0.78656    0.58927    1.13067   1.00
H2       0.77381    0.59952    1.17963   1.00
H2       0.75834    0.55605    1.15773   1.00
H2       0.74044    0.66119    1.16846   1.00
H2       0.75622    0.65965    1.11947   1.00
H2       0.70657    0.66806    1.13077   1.00
C4       0.50281    0.22916    1.00117   1.00
C4       0.50255    0.27088    1.00049   1.00
C3       0.53690    0.20636    0.99529   1.00
C3       0.53553    0.29384    0.99037   1.00
C3       0.46704    0.20877    1.00747   1.00
C3       0.46756    0.29114    1.01053   1.00
C2       0.50057    0.14488    1.00105   1.00
C2       0.49943    0.35512    0.99895   1.00
C3       0.53581    0.16538    0.99500   1.00
C3       0.53414    0.33481    0.98996   1.00
C3       0.46667    0.16742    1.00781   1.00
C3       0.46631    0.33238    1.00832   1.00
H1       0.56355    0.21885    0.99117   1.00
H1       0.56146    0.28148    0.98275   1.00
C5       0.43189    0.22980    1.01357   1.00
C5       0.43392    0.27020    1.02238   1.00
H1       0.56134    0.15045    0.99031   1.00
H1       0.55899    0.34990    0.98274   1.00
H1       0.44100    0.15320    1.01344   1.00
H1       0.44038    0.34632    1.01317   1.00
O3       0.39668    0.21039    1.01312   1.00
O3       0.40261    0.28901    1.03948   1.00
Si1      0.37170    0.20753    0.97264   1.00
Si1      0.40353    0.29721    1.08638   1.00
C6       0.33587    0.17462    0.98957   1.00
C6       0.35159    0.25402    0.96365   1.00
C6       0.39855    0.18747    0.93351   1.00
C6       0.44551    0.28307    1.11283   1.00
C6       0.39777    0.34802    1.08942   1.00
C6       0.36164    0.27523    1.10649   1.00
C6       0.35145    0.13806    1.01224   1.00
H2       0.32045    0.19209    1.01131   1.00
C6       0.30344    0.15853    0.96149   1.00
H2       0.35033    0.26642    0.99295   1.00
C6       0.37572    0.28366    0.93867   1.00
C6       0.30899    0.25664    0.94739   1.00
H2       0.41171    0.16169    0.94692   1.00
C6       0.37487    0.17228    0.89746   1.00
C6       0.43295    0.21151    0.91499   1.00
C6       0.45827    0.23929    1.11106   1.00
C6       0.48382    0.30775    1.10921   1.00
H2       0.43641    0.28788    1.14297   1.00
H2       0.42530    0.35949    1.07827   1.00
C6       0.36539    0.36622    1.06279   1.00
C6       0.39214    0.36607    1.13095   1.00
H2       0.33839    0.29625    1.10078   1.00
C6       0.34769    0.23664    1.08685   1.00
C6       0.36089    0.26756    1.15154   1.00
H2       0.36981    0.14654    1.03688   1.00
H2       0.36863    0.11910    0.99320   1.00
H2       0.32743    0.12083    1.02425   1.00
H2       0.27631    0.15392    0.97765   1.00
H2       0.29697    0.17822    0.93748   1.00
H2       0.31130    0.13036    0.94883   1.00
H2       0.36436    0.31328    0.94221   1.00
H2       0.40620    0.28468    0.94750   1.00
H2       0.37428    0.27648    0.90767   1.00
H2       0.28837    0.24138    0.96626   1.00
H2       0.29896    0.28692    0.94596   1.00
H2       0.30713    0.24450    0.91798   1.00
H2       0.35545    0.19486    0.88612   1.00
H2       0.39395    0.16292    0.87363   1.00
H2       0.35771    0.14668    0.90488   1.00
H2       0.42288    0.23098    0.89188   1.00
H2       0.44860    0.22932    0.93589   1.00
H2       0.45433    0.19172    0.90192   1.00
H2       0.47561    0.23312    1.08515   1.00
H2       0.47632    0.23191    1.13632   1.00
H2       0.43342    0.21952    1.11133   1.00
H2       0.50511    0.29875    1.13123   1.00
H2       0.49778    0.30426    1.08092   1.00
H2       0.47862    0.33878    1.11401   1.00
H2       0.36845    0.39798    1.06165   1.00
H2       0.36768    0.35565    1.03279   1.00
H2       0.33611    0.35965    1.07343   1.00
H2       0.41433    0.35584    1.15136   1.00
H2       0.39463    0.39788    1.12969   1.00
H2       0.36340    0.35915    1.14286   1.00
H2       0.36933    0.21344    1.08927   1.00
H2       0.32037    0.22619    1.09952   1.00
H2       0.34227    0.24166    1.05605   1.00
H2       0.33154    0.25956    1.16119   1.00
H2       0.38053    0.24378    1.15965   1.00
H2       0.36923    0.29343    1.16806   1.00
C4       0.50117    0.50281    0.72916   1.00
C4       0.50049    0.50255    0.77088   1.00
C3       0.49529    0.53690    0.70636   1.00
C3       0.49037    0.53553    0.79384   1.00
C3       0.50747    0.46704    0.70877   1.00
C3       0.51053    0.46756    0.79114   1.00
C2       0.50105    0.50057    0.64488   1.00
C2       0.49895    0.49943    0.85512   1.00
C3       0.49500    0.53581    0.66538   1.00
C3       0.48996    0.53414    0.83481   1.00
C3       0.50781    0.46667    0.66742   1.00
C3       0.50832    0.46631    0.83238   1.00
H1       0.49117    0.56355    0.71885   1.00
H1       0.48275    0.56146    0.78148   1.00
C5       0.51357    0.43189    0.72980   1.00
C5       0.52238    0.43392    0.77020   1.00
H1       0.49031    0.56134    0.65045   1.00
H1       0.48274    0.55899    0.84990   1.00
H1       0.51344    0.44100    0.65320   1.00
H1       0.51317    0.44038    0.84632   1.00
O3       0.51312    0.39668    0.71039   1.00
O3       0.53948    0.40261    0.78901   1.00
Si1      0.47264    0.37170    0.70753   1.00
Si1      0.58638    0.40353    0.79721   1.00
C6       0.48957    0.33587    0.67462   1.00
C6       0.46365    0.35159    0.75402   1.00
C6       0.43351    0.39855    0.68747   1.00
C6       0.61283    0.44551    0.78307   1.00
C6       0.58942    0.39777    0.84802   1.00
C6       0.60649    0.36164    0.77523   1.00
C6       0.51224    0.35145    0.63806   1.00
H2       0.51131    0.32045    0.69209   1.00
C6       0.46149    0.30344    0.65853   1.00
H2       0.49295    0.35033    0.76642   1.00
C6       0.43867    0.37572    0.78366   1.00
C6       0.44739    0.30899    0.75664   1.00
H2       0.44692    0.41171    0.66169   1.00
C6       0.39746    0.37487    0.67228   1.00
C6       0.41499    0.43295    0.71151   1.00
C6       0.61106    0.45827    0.73929   1.00
C6       0.60921    0.48382    0.80775   1.00
H2       0.64297    0.43641    0.78788   1.00
H2       0.57827    0.42530    0.85949   1.00
C6       0.56279    0.36539    0.86622   1.00
C6       0.63095    0.39214    0.86607   1.00
H2       0.60078    0.33839    0.79625   1.00
C6       0.58685    0.34769    0.73664   1.00
C6       0.65154    0.36089    0.76756   1.00
H2       0.53688    0.36981    0.64654   1.00
H2       0.49320    0.36863    0.61910   1.00
H2       0.52425    0.32743    0.62083   1.00
H2       0.47765    0.27631    0.65392   1.00
H2       0.43748    0.29697    0.67822   1.00
H2       0.44883    0.31130    0.63036   1.00
H2       0.44221    0.36436    0.81328   1.00
H2       0.44750    0.40620    0.78468   1.00
H2       0.40767    0.37428    0.77648   1.00
H2       0.46626    0.28837    0.74138   1.00
H2       0.44596    0.29896    0.78692   1.00
H2       0.41798    0.30713    0.74450   1.00
H2       0.38612    0.35545    0.69486   1.00
H2       0.37363    0.39395    0.66292   1.00
H2       0.40488    0.35771    0.64668   1.00
H2       0.39188    0.42288    0.73098   1.00
H2       0.43589    0.44860    0.72932   1.00
H2       0.40192    0.45433    0.69172   1.00
H2       0.58515    0.47561    0.73312   1.00
H2       0.63632    0.47632    0.73191   1.00
H2       0.61133    0.43342    0.71952   1.00
H2       0.63123    0.50511    0.79875   1.00
H2       0.58092    0.49778    0.80426   1.00
H2       0.61401    0.47862    0.83878   1.00
H2       0.56165    0.36845    0.89798   1.00
H2       0.53279    0.36768    0.85565   1.00
H2       0.57343    0.33611    0.85965   1.00
H2       0.65136    0.41433    0.85584   1.00
H2       0.62969    0.39463    0.89788   1.00
H2       0.64286    0.36340    0.85915   1.00
H2       0.58927    0.36933    0.71344   1.00
H2       0.59952    0.32037    0.72619   1.00
H2       0.55605    0.34227    0.74166   1.00
H2       0.66119    0.33154    0.75956   1.00
H2       0.65965    0.38053    0.74378   1.00
H2       0.66806    0.36923    0.79343   1.00
C4       0.50117    0.99719    0.77084   1.00
C4       0.50049    0.99745    0.72912   1.00
C3       0.49529    0.96310    0.79364   1.00
C3       0.49037    0.96447    0.70616   1.00
C3       0.50747    1.03296    0.79123   1.00
C3       0.51053    1.03244    0.70886   1.00
C2       0.50105    0.99943    0.85512   1.00
C2       0.49895    1.00057    0.64488   1.00
C3       0.49500    0.96419    0.83462   1.00
C3       0.48996    0.96586    0.66519   1.00
C3       0.50781    1.03333    0.83258   1.00
C3       0.50832    1.03369    0.66762   1.00
H1       0.49117    0.93645    0.78115   1.00
H1       0.48275    0.93854    0.71852   1.00
C5       0.51357    1.06811    0.77020   1.00
C5       0.52238    1.06608    0.72980   1.00
H1       0.49031    0.93866    0.84955   1.00
H1       0.48274    0.94101    0.65010   1.00
H1       0.51344    1.05900    0.84680   1.00
H1       0.51317    1.05962    0.65368   1.00
O3       0.51312    1.10332    0.78961   1.00
O3       0.53948    1.09739    0.71099   1.00
Si1      0.47264    1.12830    0.79247   1.00
Si1      0.58638    1.09647    0.70279   1.00
C6       0.48957    1.16413    0.82538   1.00
C6       0.46365    1.14841    0.74598   1.00
C6       0.43351    1.10145    0.81253   1.00
C6       0.61283    1.05449    0.71693   1.00
C6       0.58942    1.10223    0.65198   1.00
C6       0.60649    1.13836    0.72477   1.00
C6       0.51224    1.14855    0.86194   1.00
H2       0.51131    1.17955    0.80791   1.00
C6       0.46149    1.19656    0.84147   1.00
H2       0.49295    1.14967    0.73358   1.00
C6       0.43867    1.12428    0.71634   1.00
C6       0.44739    1.19101    0.74336   1.00
H2       0.44692    1.08829    0.83831   1.00
C6       0.39746    1.12513    0.82772   1.00
C6       0.41499    1.06705    0.78849   1.00
C6       0.61106    1.04173    0.76071   1.00
C6       0.60921    1.01618    0.69225   1.00
H2       0.64297    1.06359    0.71212   1.00
H2       0.57827    1.07470    0.64051   1.00
C6       0.56279    1.13461    0.63378   1.00
C6       0.63095    1.10786    0.63393   1.00
H2       0.60078    1.16161    0.70375   1.00
C6       0.58685    1.15231    0.76336   1.00
C6       0.65154    1.13911    0.73244   1.00
H2       0.53688    1.13019    0.85346   1.00
H2       0.49320    1.13137    0.88090   1.00
H2       0.52425    1.17257    0.87917   1.00
H2       0.47765    1.22369    0.84608   1.00
H2       0.43748    1.20303    0.82178   1.00
H2       0.44883    1.18870    0.86964   1.00
H2       0.44221    1.13564    0.68672   1.00
H2       0.44750    1.09380    0.71532   1.00
H2       0.40767    1.12572    0.72352   1.00
H2       0.46626    1.21163    0.75862   1.00
H2       0.44596    1.20104    0.71308   1.00
H2       0.41798    1.19287    0.75550   1.00
H2       0.38612    1.14455    0.80514   1.00
H2       0.37363    1.10605    0.83708   1.00
H2       0.40488    1.14229    0.85332   1.00
H2       0.39188    1.07712    0.76902   1.00
H2       0.43589    1.05140    0.77068   1.00
H2       0.40192    1.04567    0.80828   1.00
H2       0.58515    1.02439    0.76688   1.00
H2       0.63632    1.02368    0.76809   1.00
H2       0.61133    1.06658    0.78048   1.00
H2       0.63123    0.99489    0.70125   1.00
H2       0.58092    1.00222    0.69574   1.00
H2       0.61401    1.02138    0.66122   1.00
H2       0.56165    1.13155    0.60202   1.00
H2       0.53279    1.13232    0.64435   1.00
H2       0.57343    1.16389    0.64035   1.00
H2       0.65136    1.08567    0.64416   1.00
H2       0.62969    1.10537    0.60212   1.00
H2       0.64286    1.13660    0.64085   1.00
H2       0.58927    1.13067    0.78656   1.00
H2       0.59952    1.17963    0.77381   1.00
H2       0.55605    1.15773    0.75834   1.00
H2       0.66119    1.16846    0.74044   1.00
H2       0.65965    1.11947    0.75622   1.00
H2       0.66806    1.13077    0.70657   1.00
C4       0.49719    1.27084    0.50117   1.00
C4       0.49745    1.22912    0.50049   1.00
C3       0.46310    1.29364    0.49529   1.00
C3       0.46447    1.20616    0.49037   1.00
C3       0.53296    1.29123    0.50747   1.00
C3       0.53244    1.20886    0.51053   1.00
C2       0.49943    1.35512    0.50105   1.00
C2       0.50057    1.14488    0.49895   1.00
C3       0.46419    1.33462    0.49500   1.00
C3       0.46586    1.16519    0.48996   1.00
C3       0.53333    1.33258    0.50781   1.00
C3       0.53369    1.16762    0.50832   1.00
H1       0.43645    1.28115    0.49117   1.00
H1       0.43854    1.21852    0.48275   1.00
C5       0.56811    1.27020    0.51357   1.00
C5       0.56608    1.22980    0.52238   1.00
H1       0.43866    1.34955    0.49031   1.00
H1       0.44101    1.15010    0.48274   1.00
H1       0.55900    1.34680    0.51344   1.00
H1       0.55962    1.15368    0.51317   1.00
O3       0.60332    1.28961    0.51312   1.00
O3       0.59739    1.21099    0.53948   1.00
Si1      0.62830    1.29247    0.47264   1.00
Si1      0.59647    1.20279    0.58638   1.00
C6       0.66413    1.32538    0.48957   1.00
C6       0.64841    1.24598    0.46365   1.00
C6       0.60145    1.31253    0.43351   1.00
C6       0.55449    1.21693    0.61283   1.00
C6       0.60223    1.15198    0.58942   1.00
C6       0.63836    1.22477    0.60649   1.00
C6       0.64855    1.36194    0.51224   1.00
H2       0.67955    1.30791    0.51131   1.00
C6       0.69656    1.34147    0.46149   1.00
H2       0.64967    1.23358    0.49295   1.00
C6       0.62428    1.21634    0.43867   1.00
C6       0.69101    1.24336    0.44739   1.00
H2       0.58829    1.33831    0.44692   1.00
C6       0.62513    1.32772    0.39746   1.00
C6       0.56705    1.28849    0.41499   1.00
C6       0.54173    1.26071    0.61106   1.00
C6       0.51618    1.19225    0.60921   1.00
H2       0.56359    1.21212    0.64297   1.00
H2       0.57470    1.14051    0.57827   1.00
C6       0.63461    1.13378    0.56279   1.00
C6       0.60786    1.13393    0.63095   1.00
H2       0.66161    1.20375    0.60078   1.00
C6       0.65231    1.26336    0.58685   1.00
C6       0.63911    1.23244    0.65154   1.00
H2       0.63019    1.35346    0.53688   1.00
H2       0.63137    1.38090    0.49320   1.00
H2       0.67257    1.37917    0.52425   1.00
H2       0.72369    1.34608    0.47765   1.00
H2       0.70303    1.32178    0.43748   1.00
H2       0.68870    1.36964    0.44883   1.00
H2       0.63564    1.18672    0.44221   1.00
H2       0.59380    1.21532    0.44750   1.00
H2       0.62572    1.22352    0.40767   1.00
H2       0.71163    1.25862    0.46626   1.00
H2       0.70104    1.21308    0.44596   1.00
H2       0.69287    1.25550    0.41798   1.00
H2       0.64455    1.30514    0.38612   1.00
H2       0.60605    1.33708    0.37363   1.00
H2       0.64229    1.35332    0.40488   1.00
H2       0.57712    1.26902    0.39188   1.00
H2       0.55140    1.27068    0.43589   1.00
H2       0.54567    1.30828    0.40192   1.00
H2       0.52439    1.26688    0.58515   1.00
H2       0.52368    1.26809    0.63632   1.00
H2       0.56658    1.28048    0.61133   1.00
H2       0.49489    1.20125    0.63123   1.00
H2       0.50222    1.19574    0.58092   1.00
H2       0.52138    1.16122    0.61401   1.00
H2       0.63155    1.10202    0.56165   1.00
H2       0.63232    1.14435    0.53279   1.00
H2       0.66389    1.14035    0.57343   1.00
H2       0.58567    1.14416    0.65136   1.00
H2       0.60537    1.10212    0.62969   1.00
H2       0.63660    1.14085    0.64286   1.00
H2       0.63067    1.28656    0.58927   1.00
H2       0.67963    1.27381    0.59952   1.00
H2       0.65773    1.25834    0.55605   1.00
H2       0.66846    1.24044    0.66119   1.00
H2       0.61947    1.25622    0.65965   1.00
H2       0.63077    1.20657    0.66806   1.00
C4       0.22916    1.00117    0.50281   1.00
C4       0.27088    1.00049    0.50255   1.00
C3       0.20636    0.99529    0.53690   1.00
C3       0.29384    0.99037    0.53553   1.00
C3       0.20877    1.00747    0.46704   1.00
C3       0.29114    1.01053    0.46756   1.00
C2       0.14488    1.00105    0.50057   1.00
C2       0.35512    0.99895    0.49943   1.00
C3       0.16538    0.99500    0.53581   1.00
C3       0.33481    0.98996    0.53414   1.00
C3       0.16742    1.00781    0.46667   1.00
C3       0.33238    1.00832    0.46631   1.00
H1       0.21885    0.99117    0.56355   1.00
H1       0.28148    0.98275    0.56146   1.00
C5       0.22980    1.01357    0.43189   1.00
C5       0.27020    1.02238    0.43392   1.00
H1       0.15045    0.99031    0.56134   1.00
H1       0.34990    0.98274    0.55899   1.00
H1       0.15320    1.01344    0.44100   1.00
H1       0.34632    1.01317    0.44038   1.00
O3       0.21039    1.01312    0.39668   1.00
O3       0.28901    1.03948    0.40261   1.00
Si1      0.20753    0.97264    0.37170   1.00
Si1      0.29721    1.08638    0.40353   1.00
C6       0.17462    0.98957    0.33587   1.00
C6       0.25402    0.96365    0.35159   1.00
C6       0.18747    0.93351    0.39855   1.00
C6       0.28307    1.11283    0.44551   1.00
C6       0.34802    1.08942    0.39777   1.00
C6       0.27523    1.10649    0.36164   1.00
C6       0.13806    1.01224    0.35145   1.00
H2       0.19209    1.01131    0.32045   1.00
C6       0.15853    0.96149    0.30344   1.00
H2       0.26642    0.99295    0.35033   1.00
C6       0.28366    0.93867    0.37572   1.00
C6       0.25664    0.94739    0.30899   1.00
H2       0.16169    0.94692    0.41171   1.00
C6       0.17228    0.89746    0.37487   1.00
C6       0.21151    0.91499    0.43295   1.00
C6       0.23929    1.11106    0.45827   1.00
C6       0.30775    1.10921    0.48382   1.00
H2       0.28788    1.14297    0.43641   1.00
H2       0.35949    1.07827    0.42530   1.00
C6       0.36622    1.06279    0.36539   1.00
C6       0.36607    1.13095    0.39214   1.00
H2       0.29625    1.10078    0.33839   1.00
C6       0.23664    1.08685    0.34769   1.00
C6       0.26756    1.15154    0.36089   1.00
H2       0.14654    1.03688    0.36981   1.00
H2       0.11910    0.99320    0.36863   1.00
H2       0.12083    1.02425    0.32743   1.00
H2       0.15392    0.97765    0.27631   1.00
H2       0.17822    0.93748    0.29697   1.00
H2       0.13036    0.94883    0.31130   1.00
H2       0.31328    0.94221    0.36436   1.00
H2       0.28468    0.94750    0.40620   1.00
H2       0.27648    0.90767    0.37428   1.00
H2       0.24138    0.96626    0.28837   1.00
H2       0.28692    0.94596    0.29896   1.00
H2       0.24450    0.91798    0.30713   1.00
H2       0.19486    0.88612    0.35545   1.00
H2       0.16292    0.87363    0.39395   1.00
H2       0.14668    0.90488    0.35771   1.00
H2       0.23098    0.89188    0.42288   1.00
H2       0.22932    0.93589    0.44860   1.00
H2       0.19172    0.90192    0.45433   1.00
H2       0.23312    1.08515    0.47561   1.00
H2       0.23191    1.13632    0.47632   1.00
H2       0.21952    1.11133    0.43342   1.00
H2       0.29875    1.13123    0.50511   1.00
H2       0.30426    1.08092    0.49778   1.00
H2       0.33878    1.11401    0.47862   1.00
H2       0.39798    1.06165    0.36845   1.00
H2       0.35565    1.03279    0.36768   1.00
H2       0.35965    1.07343    0.33611   1.00
H2       0.35584    1.15136    0.41433   1.00
H2       0.39788    1.12969    0.39463   1.00
H2       0.35915    1.14286    0.36340   1.00
H2       0.21344    1.08927    0.36933   1.00
H2       0.22619    1.09952    0.32037   1.00
H2       0.24166    1.05605    0.34227   1.00
H2       0.25956    1.16119    0.33154   1.00
H2       0.24378    1.15965    0.38053   1.00
H2       0.29343    1.16806    0.36923   1.00
C4       0.77084    1.00117    0.49719   1.00
C4       0.72912    1.00049    0.49745   1.00
C3       0.79364    0.99529    0.46310   1.00
C3       0.70616    0.99037    0.46447   1.00
C3       0.79123    1.00747    0.53296   1.00
C3       0.70886    1.01053    0.53244   1.00
C2       0.85512    1.00105    0.49943   1.00
C2       0.64488    0.99895    0.50057   1.00
C3       0.83462    0.99500    0.46419   1.00
C3       0.66519    0.98996    0.46586   1.00
C3       0.83258    1.00781    0.53333   1.00
C3       0.66762    1.00832    0.53369   1.00
H1       0.78115    0.99117    0.43645   1.00
H1       0.71852    0.98275    0.43854   1.00
C5       0.77020    1.01357    0.56811   1.00
C5       0.72980    1.02238    0.56608   1.00
H1       0.84955    0.99031    0.43866   1.00
H1       0.65010    0.98274    0.44101   1.00
H1       0.84680    1.01344    0.55900   1.00
H1       0.65368    1.01317    0.55962   1.00
O3       0.78961    1.01312    0.60332   1.00
O3       0.71099    1.03948    0.59739   1.00
Si1      0.79247    0.97264    0.62830   1.00
Si1      0.70279    1.08638    0.59647   1.00
C6       0.82538    0.98957    0.66413   1.00
C6       0.74598    0.96365    0.64841   1.00
C6       0.81253    0.93351    0.60145   1.00
C6       0.71693    1.11283    0.55449   1.00
C6       0.65198    1.08942    0.60223   1.00
C6       0.72477    1.10649    0.63836   1.00
C6       0.86194    1.01224    0.64855   1.00
H2       0.80791    1.01131    0.67955   1.00
C6       0.84147    0.96149    0.69656   1.00
H2       0.73358    0.99295    0.64967   1.00
C6       0.71634    0.93867    0.62428   1.00
C6       0.74336    0.94739    0.69101   1.00
H2       0.83831    0.94692    0.58829   1.00
C6       0.82772    0.89746    0.62513   1.00
C6       0.78849    0.91499    0.56705   1.00
C6       0.76071    1.11106    0.54173   1.00
C6       0.69225    1.10921    0.51618   1.00
H2       0.71212    1.14297    0.56359   1.00
H2       0.64051    1.07827    0.57470   1.00
C6       0.63378    1.06279    0.63461   1.00
C6       0.63393    1.13095    0.60786   1.00
H2       0.70375    1.10078    0.66161   1.00
C6       0.76336    1.08685    0.65231   1.00
C6       0.73244    1.15154    0.63911   1.00
H2       0.85346    1.03688    0.63019   1.00
H2       0.88090    0.99320    0.63137   1.00
H2       0.87917    1.02425    0.67257   1.00
H2       0.84608    0.97765    0.72369   1.00
H2       0.82178    0.93748    0.70303   1.00
H2       0.86964    0.94883    0.68870   1.00
H2       0.68672    0.94221    0.63564   1.00
H2       0.71532    0.94750    0.59380   1.00
H2       0.72352    0.90767    0.62572   1.00
H2       0.75862    0.96626    0.71163   1.00
H2       0.71308    0.94596    0.70104   1.00
H2       0.75550    0.91798    0.69287   1.00
H2       0.80514    0.88612    0.64455   1.00
H2       0.83708    0.87363    0.60605   1.00
H2       0.85332    0.90488    0.64229   1.00
H2       0.76902    0.89188    0.57712   1.00
H2       0.77068    0.93589    0.55140   1.00
H2       0.80828    0.90192    0.54567   1.00
H2       0.76688    1.08515    0.52439   1.00
H2       0.76809    1.13632    0.52368   1.00
H2       0.78048    1.11133    0.56658   1.00
H2       0.70125    1.13123    0.49489   1.00
H2       0.69574    1.08092    0.50222   1.00
H2       0.66122    1.11401    0.52138   1.00
H2       0.60202    1.06165    0.63155   1.00
H2       0.64435    1.03279    0.63232   1.00
H2       0.64035    1.07343    0.66389   1.00
H2       0.64416    1.15136    0.58567   1.00
H2       0.60212    1.12969    0.60537   1.00
H2       0.64085    1.14286    0.63660   1.00
H2       0.78656    1.08927    0.63067   1.00
H2       0.77381    1.09952    0.67963   1.00
H2       0.75834    1.05605    0.65773   1.00
H2       0.74044    1.16119    0.66846   1.00
H2       0.75622    1.15965    0.61947   1.00
H2       0.70657    1.16806    0.63077   1.00
C4       0.50281    0.72916    0.50117   1.00
C4       0.50255    0.77088    0.50049   1.00
C3       0.53690    0.70636    0.49529   1.00
C3       0.53553    0.79384    0.49037   1.00
C3       0.46704    0.70877    0.50747   1.00
C3       0.46756    0.79114    0.51053   1.00
C2       0.50057    0.64488    0.50105   1.00
C2       0.49943    0.85512    0.49895   1.00
C3       0.53581    0.66538    0.49500   1.00
C3       0.53414    0.83481    0.48996   1.00
C3       0.46667    0.66742    0.50781   1.00
C3       0.46631    0.83238    0.50832   1.00
H1       0.56355    0.71885    0.49117   1.00
H1       0.56146    0.78148    0.48275   1.00
C5       0.43189    0.72980    0.51357   1.00
C5       0.43392    0.77020    0.52238   1.00
H1       0.56134    0.65045    0.49031   1.00
H1       0.55899    0.84990    0.48274   1.00
H1       0.44100    0.65320    0.51344   1.00
H1       0.44038    0.84632    0.51317   1.00
O3       0.39668    0.71039    0.51312   1.00
O3       0.40261    0.78901    0.53948   1.00
Si1      0.37170    0.70753    0.47264   1.00
Si1      0.40353    0.79721    0.58638   1.00
C6       0.33587    0.67462    0.48957   1.00
C6       0.35159    0.75402    0.46365   1.00
C6       0.39855    0.68747    0.43351   1.00
C6       0.44551    0.78307    0.61283   1.00
C6       0.39777    0.84802    0.58942   1.00
C6       0.36164    0.77523    0.60649   1.00
C6       0.35145    0.63806    0.51224   1.00
H2       0.32045    0.69209    0.51131   1.00
C6       0.30344    0.65853    0.46149   1.00
H2       0.35033    0.76642    0.49295   1.00
C6       0.37572    0.78366    0.43867   1.00
C6       0.30899    0.75664    0.44739   1.00
H2       0.41171    0.66169    0.44692   1.00
C6       0.37487    0.67228    0.39746   1.00
C6       0.43295    0.71151    0.41499   1.00
C6       0.45827    0.73929    0.61106   1.00
C6       0.48382    0.80775    0.60921   1.00
H2       0.43641    0.78788    0.64297   1.00
H2       0.42530    0.85949    0.57827   1.00
C6       0.36539    0.86622    0.56279   1.00
C6       0.39214    0.86607    0.63095   1.00
H2       0.33839    0.79625    0.60078   1.00
C6       0.34769    0.73664    0.58685   1.00
C6       0.36089    0.76756    0.65154   1.00
H2       0.36981    0.64654    0.53688   1.00
H2       0.36863    0.61910    0.49320   1.00
H2       0.32743    0.62083    0.52425   1.00
H2       0.27631    0.65392    0.47765   1.00
H2       0.29697    0.67822    0.43748   1.00
H2       0.31130    0.63036    0.44883   1.00
H2       0.36436    0.81328    0.44221   1.00
H2       0.40620    0.78468    0.44750   1.00
H2       0.37428    0.77648    0.40767   1.00
H2       0.28837    0.74138    0.46626   1.00
H2       0.29896    0.78692    0.44596   1.00
H2       0.30713    0.74450    0.41798   1.00
H2       0.35545    0.69486    0.38612   1.00
H2       0.39395    0.66292    0.37363   1.00
H2       0.35771    0.64668    0.40488   1.00
H2       0.42288    0.73098    0.39188   1.00
H2       0.44860    0.72932    0.43589   1.00
H2       0.45433    0.69172    0.40192   1.00
H2       0.47561    0.73312    0.58515   1.00
H2       0.47632    0.73191    0.63632   1.00
H2       0.43342    0.71952    0.61133   1.00
H2       0.50511    0.79875    0.63123   1.00
H2       0.49778    0.80426    0.58092   1.00
H2       0.47862    0.83878    0.61401   1.00
H2       0.36845    0.89798    0.56165   1.00
H2       0.36768    0.85565    0.53279   1.00
H2       0.33611    0.85965    0.57343   1.00
H2       0.41433    0.85584    0.65136   1.00
H2       0.39463    0.89788    0.62969   1.00
H2       0.36340    0.85915    0.64286   1.00
H2       0.36933    0.71344    0.58927   1.00
H2       0.32037    0.72619    0.59952   1.00
H2       0.34227    0.74166    0.55605   1.00
H2       0.33154    0.75956    0.66119   1.00
H2       0.38053    0.74378    0.65965   1.00
H2       0.36923    0.79343    0.66806   1.00
C4       0.50117    1.00281    0.22916   1.00
C4       0.50049    1.00255    0.27088   1.00
C3       0.49529    1.03690    0.20636   1.00
C3       0.49037    1.03553    0.29384   1.00
C3       0.50747    0.96704    0.20877   1.00
C3       0.51053    0.96756    0.29114   1.00
C2       0.50105    1.00057    0.14488   1.00
C2       0.49895    0.99943    0.35512   1.00
C3       0.49500    1.03581    0.16538   1.00
C3       0.48996    1.03414    0.33481   1.00
C3       0.50781    0.96667    0.16742   1.00
C3       0.50832    0.96631    0.33238   1.00
H1       0.49117    1.06355    0.21885   1.00
H1       0.48275    1.06146    0.28148   1.00
C5       0.51357    0.93189    0.22980   1.00
C5       0.52238    0.93392    0.27020   1.00
H1       0.49031    1.06134    0.15045   1.00
H1       0.48274    1.05899    0.34990   1.00
H1       0.51344    0.94100    0.15320   1.00
H1       0.51317    0.94038    0.34632   1.00
O3       0.51312    0.89668    0.21039   1.00
O3       0.53948    0.90261    0.28901   1.00
Si1      0.47264    0.87170    0.20753   1.00
Si1      0.58638    0.90353    0.29721   1.00
C6       0.48957    0.83587    0.17462   1.00
C6       0.46365    0.85159    0.25402   1.00
C6       0.43351    0.89855    0.18747   1.00
C6       0.61283    0.94551    0.28307   1.00
C6       0.58942    0.89777    0.34802   1.00
C6       0.60649    0.86164    0.27523   1.00
C6       0.51224    0.85145    0.13806   1.00
H2       0.51131    0.82045    0.19209   1.00
C6       0.46149    0.80344    0.15853   1.00
H2       0.49295    0.85033    0.26642   1.00
C6       0.43867    0.87572    0.28366   1.00
C6       0.44739    0.80899    0.25664   1.00
H2       0.44692    0.91171    0.16169   1.00
C6       0.39746    0.87487    0.17228   1.00
C6       0.41499    0.93295    0.21151   1.00
C6       0.61106    0.95827    0.23929   1.00
C6       0.60921    0.98382    0.30775   1.00
H2       0.64297    0.93641    0.28788   1.00
H2       0.57827    0.92530    0.35949   1.00
C6       0.56279    0.86539    0.36622   1.00
C6       0.63095    0.89214    0.36607   1.00
H2       0.60078    0.83839    0.29625   1.00
C6       0.58685    0.84769    0.23664   1.00
C6       0.65154    0.86089    0.26756   1.00
H2       0.53688    0.86981    0.14654   1.00
H2       0.49320    0.86863    0.11910   1.00
H2       0.52425    0.82743    0.12083   1.00
H2       0.47765    0.77631    0.15392   1.00
H2       0.43748    0.79697    0.17822   1.00
H2       0.44883    0.81130    0.13036   1.00
H2       0.44221    0.86436    0.31328   1.00
H2       0.44750    0.90620    0.28468   1.00
H2       0.40767    0.87428    0.27648   1.00
H2       0.46626    0.78837    0.24138   1.00
H2       0.44596    0.79896    0.28692   1.00
H2       0.41798    0.80713    0.24450   1.00
H2       0.38612    0.85545    0.19486   1.00
H2       0.37363    0.89395    0.16292   1.00
H2       0.40488    0.85771    0.14668   1.00
H2       0.39188    0.92288    0.23098   1.00
H2       0.43589    0.94860    0.22932   1.00
H2       0.40192    0.95433    0.19172   1.00
H2       0.58515    0.97561    0.23312   1.00
H2       0.63632    0.97632    0.23191   1.00
H2       0.61133    0.93342    0.21952   1.00
H2       0.63123    1.00511    0.29875   1.00
H2       0.58092    0.99778    0.30426   1.00
H2       0.61401    0.97862    0.33878   1.00
H2       0.56165    0.86845    0.39798   1.00
H2       0.53279    0.86768    0.35565   1.00
H2       0.57343    0.83611    0.35965   1.00
H2       0.65136    0.91433    0.35584   1.00
H2       0.62969    0.89463    0.39788   1.00
H2       0.64286    0.86340    0.35915   1.00
H2       0.58927    0.86933    0.21344   1.00
H2       0.59952    0.82037    0.22619   1.00
H2       0.55605    0.84227    0.24166   1.00
H2       0.66119    0.83154    0.25956   1.00
H2       0.65965    0.88053    0.24378   1.00
H2       0.66806    0.86923    0.29343   1.00
C4       1.00117    0.49719    0.77084   1.00
C4       1.00049    0.49745    0.72912   1.00
C3       0.99529    0.46310    0.79364   1.00
C3       0.99037    0.46447    0.70616   1.00
C3       1.00747    0.53296    0.79123   1.00
C3       1.01053    0.53244    0.70886   1.00
C2       1.00105    0.49943    0.85512   1.00
C2       0.99895    0.50057    0.64488   1.00
C3       0.99500    0.46419    0.83462   1.00
C3       0.98996    0.46586    0.66519   1.00
C3       1.00781    0.53333    0.83258   1.00
C3       1.00832    0.53369    0.66762   1.00
H1       0.99117    0.43645    0.78115   1.00
H1       0.98275    0.43854    0.71852   1.00
C5       1.01357    0.56811    0.77020   1.00
C5       1.02238    0.56608    0.72980   1.00
H1       0.99031    0.43866    0.84955   1.00
H1       0.98274    0.44101    0.65010   1.00
H1       1.01344    0.55900    0.84680   1.00
H1       1.01317    0.55962    0.65368   1.00
O3       1.01312    0.60332    0.78961   1.00
O3       1.03948    0.59739    0.71099   1.00
Si1      0.97264    0.62830    0.79247   1.00
Si1      1.08638    0.59647    0.70279   1.00
C6       0.98957    0.66413    0.82538   1.00
C6       0.96365    0.64841    0.74598   1.00
C6       0.93351    0.60145    0.81253   1.00
C6       1.11283    0.55449    0.71693   1.00
C6       1.08942    0.60223    0.65198   1.00
C6       1.10649    0.63836    0.72477   1.00
C6       1.01224    0.64855    0.86194   1.00
H2       1.01131    0.67955    0.80791   1.00
C6       0.96149    0.69656    0.84147   1.00
H2       0.99295    0.64967    0.73358   1.00
C6       0.93867    0.62428    0.71634   1.00
C6       0.94739    0.69101    0.74336   1.00
H2       0.94692    0.58829    0.83831   1.00
C6       0.89746    0.62513    0.82772   1.00
C6       0.91499    0.56705    0.78849   1.00
C6       1.11106    0.54173    0.76071   1.00
C6       1.10921    0.51618    0.69225   1.00
H2       1.14297    0.56359    0.71212   1.00
H2       1.07827    0.57470    0.64051   1.00
C6       1.06279    0.63461    0.63378   1.00
C6       1.13095    0.60786    0.63393   1.00
H2       1.10078    0.66161    0.70375   1.00
C6       1.08685    0.65231    0.76336   1.00
C6       1.15154    0.63911    0.73244   1.00
H2       1.03688    0.63019    0.85346   1.00
H2       0.99320    0.63137    0.88090   1.00
H2       1.02425    0.67257    0.87917   1.00
H2       0.97765    0.72369    0.84608   1.00
H2       0.93748    0.70303    0.82178   1.00
H2       0.94883    0.68870    0.86964   1.00
H2       0.94221    0.63564    0.68672   1.00
H2       0.94750    0.59380    0.71532   1.00
H2       0.90767    0.62572    0.72352   1.00
H2       0.96626    0.71163    0.75862   1.00
H2       0.94596    0.70104    0.71308   1.00
H2       0.91798    0.69287    0.75550   1.00
H2       0.88612    0.64455    0.80514   1.00
H2       0.87363    0.60605    0.83708   1.00
H2       0.90488    0.64229    0.85332   1.00
H2       0.89188    0.57712    0.76902   1.00
H2       0.93589    0.55140    0.77068   1.00
H2       0.90192    0.54567    0.80828   1.00
H2       1.08515    0.52439    0.76688   1.00
H2       1.13632    0.52368    0.76809   1.00
H2       1.11133    0.56658    0.78048   1.00
H2       1.13123    0.49489    0.70125   1.00
H2       1.08092    0.50222    0.69574   1.00
H2       1.11401    0.52138    0.66122   1.00
H2       1.06165    0.63155    0.60202   1.00
H2       1.03279    0.63232    0.64435   1.00
H2       1.07343    0.66389    0.64035   1.00
H2       1.15136    0.58567    0.64416   1.00
H2       1.12969    0.60537    0.60212   1.00
H2       1.14286    0.63660    0.64085   1.00
H2       1.08927    0.63067    0.78656   1.00
H2       1.09952    0.67963    0.77381   1.00
H2       1.05605    0.65773    0.75834   1.00
H2       1.16119    0.66846    0.74044   1.00
H2       1.15965    0.61947    0.75622   1.00
H2       1.16806    0.63077    0.70657   1.00
C4       0.99719    0.77084    0.50117   1.00
C4       0.99745    0.72912    0.50049   1.00
C3       0.96310    0.79364    0.49529   1.00
C3       0.96447    0.70616    0.49037   1.00
C3       1.03296    0.79123    0.50747   1.00
C3       1.03244    0.70886    0.51053   1.00
C2       0.99943    0.85512    0.50105   1.00
C2       1.00057    0.64488    0.49895   1.00
C3       0.96419    0.83462    0.49500   1.00
C3       0.96586    0.66519    0.48996   1.00
C3       1.03333    0.83258    0.50781   1.00
C3       1.03369    0.66762    0.50832   1.00
H1       0.93645    0.78115    0.49117   1.00
H1       0.93854    0.71852    0.48275   1.00
C5       1.06811    0.77020    0.51357   1.00
C5       1.06608    0.72980    0.52238   1.00
H1       0.93866    0.84955    0.49031   1.00
H1       0.94101    0.65010    0.48274   1.00
H1       1.05900    0.84680    0.51344   1.00
H1       1.05962    0.65368    0.51317   1.00
O3       1.10332    0.78961    0.51312   1.00
O3       1.09739    0.71099    0.53948   1.00
Si1      1.12830    0.79247    0.47264   1.00
Si1      1.09647    0.70279    0.58638   1.00
C6       1.16413    0.82538    0.48957   1.00
C6       1.14841    0.74598    0.46365   1.00
C6       1.10145    0.81253    0.43351   1.00
C6       1.05449    0.71693    0.61283   1.00
C6       1.10223    0.65198    0.58942   1.00
C6       1.13836    0.72477    0.60649   1.00
C6       1.14855    0.86194    0.51224   1.00
H2       1.17955    0.80791    0.51131   1.00
C6       1.19656    0.84147    0.46149   1.00
H2       1.14967    0.73358    0.49295   1.00
C6       1.12428    0.71634    0.43867   1.00
C6       1.19101    0.74336    0.44739   1.00
H2       1.08829    0.83831    0.44692   1.00
C6       1.12513    0.82772    0.39746   1.00
C6       1.06705    0.78849    0.41499   1.00
C6       1.04173    0.76071    0.61106   1.00
C6       1.01618    0.69225    0.60921   1.00
H2       1.06359    0.71212    0.64297   1.00
H2       1.07470    0.64051    0.57827   1.00
C6       1.13461    0.63378    0.56279   1.00
C6       1.10786    0.63393    0.63095   1.00
H2       1.16161    0.70375    0.60078   1.00
C6       1.15231    0.76336    0.58685   1.00
C6       1.13911    0.73244    0.65154   1.00
H2       1.13019    0.85346    0.53688   1.00
H2       1.13137    0.88090    0.49320   1.00
H2       1.17257    0.87917    0.52425   1.00
H2       1.22369    0.84608    0.47765   1.00
H2       1.20303    0.82178    0.43748   1.00
H2       1.18870    0.86964    0.44883   1.00
H2       1.13564    0.68672    0.44221   1.00
H2       1.09380    0.71532    0.44750   1.00
H2       1.12572    0.72352    0.40767   1.00
H2       1.21163    0.75862    0.46626   1.00
H2       1.20104    0.71308    0.44596   1.00
H2       1.19287    0.75550    0.41798   1.00
H2       1.14455    0.80514    0.38612   1.00
H2       1.10605    0.83708    0.37363   1.00
H2       1.14229    0.85332    0.40488   1.00
H2       1.07712    0.76902    0.39188   1.00
H2       1.05140    0.77068    0.43589   1.00
H2       1.04567    0.80828    0.40192   1.00
H2       1.02439    0.76688    0.58515   1.00
H2       1.02368    0.76809    0.63632   1.00
H2       1.06658    0.78048    0.61133   1.00
H2       0.99489    0.70125    0.63123   1.00
H2       1.00222    0.69574    0.58092   1.00
H2       1.02138    0.66122    0.61401   1.00
H2       1.13155    0.60202    0.56165   1.00
H2       1.13232    0.64435    0.53279   1.00
H2       1.16389    0.64035    0.57343   1.00
H2       1.08567    0.64416    0.65136   1.00
H2       1.10537    0.60212    0.62969   1.00
H2       1.13660    0.64085    0.64286   1.00
H2       1.13067    0.78656    0.58927   1.00
H2       1.17963    0.77381    0.59952   1.00
H2       1.15773    0.75834    0.55605   1.00
H2       1.16846    0.74044    0.66119   1.00
H2       1.11947    0.75622    0.65965   1.00
H2       1.13077    0.70657    0.66806   1.00
C4       0.72916    0.50117    0.50281   1.00
C4       0.77088    0.50049    0.50255   1.00
C3       0.70636    0.49529    0.53690   1.00
C3       0.79384    0.49037    0.53553   1.00
C3       0.70877    0.50747    0.46704   1.00
C3       0.79114    0.51053    0.46756   1.00
C2       0.64488    0.50105    0.50057   1.00
C2       0.85512    0.49895    0.49943   1.00
C3       0.66538    0.49500    0.53581   1.00
C3       0.83481    0.48996    0.53414   1.00
C3       0.66742    0.50781    0.46667   1.00
C3       0.83238    0.50832    0.46631   1.00
H1       0.71885    0.49117    0.56355   1.00
H1       0.78148    0.48275    0.56146   1.00
C5       0.72980    0.51357    0.43189   1.00
C5       0.77020    0.52238    0.43392   1.00
H1       0.65045    0.49031    0.56134   1.00
H1       0.84990    0.48274    0.55899   1.00
H1       0.65320    0.51344    0.44100   1.00
H1       0.84632    0.51317    0.44038   1.00
O3       0.71039    0.51312    0.39668   1.00
O3       0.78901    0.53948    0.40261   1.00
Si1      0.70753    0.47264    0.37170   1.00
Si1      0.79721    0.58638    0.40353   1.00
C6       0.67462    0.48957    0.33587   1.00
C6       0.75402    0.46365    0.35159   1.00
C6       0.68747    0.43351    0.39855   1.00
C6       0.78307    0.61283    0.44551   1.00
C6       0.84802    0.58942    0.39777   1.00
C6       0.77523    0.60649    0.36164   1.00
C6       0.63806    0.51224    0.35145   1.00
H2       0.69209    0.51131    0.32045   1.00
C6       0.65853    0.46149    0.30344   1.00
H2       0.76642    0.49295    0.35033   1.00
C6       0.78366    0.43867    0.37572   1.00
C6       0.75664    0.44739    0.30899   1.00
H2       0.66169    0.44692    0.41171   1.00
C6       0.67228    0.39746    0.37487   1.00
C6       0.71151    0.41499    0.43295   1.00
C6       0.73929    0.61106    0.45827   1.00
C6       0.80775    0.60921    0.48382   1.00
H2       0.78788    0.64297    0.43641   1.00
H2       0.85949    0.57827    0.42530   1.00
C6       0.86622    0.56279    0.36539   1.00
C6       0.86607    0.63095    0.39214   1.00
H2       0.79625    0.60078    0.33839   1.00
C6       0.73664    0.58685    0.34769   1.00
C6       0.76756    0.65154    0.36089   1.00
H2       0.64654    0.53688    0.36981   1.00
H2       0.61910    0.49320    0.36863   1.00
H2       0.62083    0.52425    0.32743   1.00
H2       0.65392    0.47765    0.27631   1.00
H2       0.67822    0.43748    0.29697   1.00
H2       0.63036    0.44883    0.31130   1.00
H2       0.81328    0.44221    0.36436   1.00
H2       0.78468    0.44750    0.40620   1.00
H2       0.77648    0.40767    0.37428   1.00
H2       0.74138    0.46626    0.28837   1.00
H2       0.78692    0.44596    0.29896   1.00
H2       0.74450    0.41798    0.30713   1.00
H2       0.69486    0.38612    0.35545   1.00
H2       0.66292    0.37363    0.39395   1.00
H2       0.64668    0.40488    0.35771   1.00
H2       0.73098    0.39188    0.42288   1.00
H2       0.72932    0.43589    0.44860   1.00
H2       0.69172    0.40192    0.45433   1.00
H2       0.73312    0.58515    0.47561   1.00
H2       0.73191    0.63632    0.47632   1.00
H2       0.71952    0.61133    0.43342   1.00
H2       0.79875    0.63123    0.50511   1.00
H2       0.80426    0.58092    0.49778   1.00
H2       0.83878    0.61401    0.47862   1.00
H2       0.89798    0.56165    0.36845   1.00
H2       0.85565    0.53279    0.36768   1.00
H2       0.85965    0.57343    0.33611   1.00
H2       0.85584    0.65136    0.41433   1.00
H2       0.89788    0.62969    0.39463   1.00
H2       0.85915    0.64286    0.36340   1.00
H2       0.71344    0.58927    0.36933   1.00
H2       0.72619    0.59952    0.32037   1.00
H2       0.74166    0.55605    0.34227   1.00
H2       0.75956    0.66119    0.33154   1.00
H2       0.74378    0.65965    0.38053   1.00
H2       0.79343    0.66806    0.36923   1.00
C4       1.27084    0.50117    0.49719   1.00
C4       1.22912    0.50049    0.49745   1.00
C3       1.29364    0.49529    0.46310   1.00
C3       1.20616    0.49037    0.46447   1.00
C3       1.29123    0.50747    0.53296   1.00
C3       1.20886    0.51053    0.53244   1.00
C2       1.35512    0.50105    0.49943   1.00
C2       1.14488    0.49895    0.50057   1.00
C3       1.33462    0.49500    0.46419   1.00
C3       1.16519    0.48996    0.46586   1.00
C3       1.33258    0.50781    0.53333   1.00
C3       1.16762    0.50832    0.53369   1.00
H1       1.28115    0.49117    0.43645   1.00
H1       1.21852    0.48275    0.43854   1.00
C5       1.27020    0.51357    0.56811   1.00
C5       1.22980    0.52238    0.56608   1.00
H1       1.34955    0.49031    0.43866   1.00
H1       1.15010    0.48274    0.44101   1.00
H1       1.34680    0.51344    0.55900   1.00
H1       1.15368    0.51317    0.55962   1.00
O3       1.28961    0.51312    0.60332   1.00
O3       1.21099    0.53948    0.59739   1.00
Si1      1.29247    0.47264    0.62830   1.00
Si1      1.20279    0.58638    0.59647   1.00
C6       1.32538    0.48957    0.66413   1.00
C6       1.24598    0.46365    0.64841   1.00
C6       1.31253    0.43351    0.60145   1.00
C6       1.21693    0.61283    0.55449   1.00
C6       1.15198    0.58942    0.60223   1.00
C6       1.22477    0.60649    0.63836   1.00
C6       1.36194    0.51224    0.64855   1.00
H2       1.30791    0.51131    0.67955   1.00
C6       1.34147    0.46149    0.69656   1.00
H2       1.23358    0.49295    0.64967   1.00
C6       1.21634    0.43867    0.62428   1.00
C6       1.24336    0.44739    0.69101   1.00
H2       1.33831    0.44692    0.58829   1.00
C6       1.32772    0.39746    0.62513   1.00
C6       1.28849    0.41499    0.56705   1.00
C6       1.26071    0.61106    0.54173   1.00
C6       1.19225    0.60921    0.51618   1.00
H2       1.21212    0.64297    0.56359   1.00
H2       1.14051    0.57827    0.57470   1.00
C6       1.13378    0.56279    0.63461   1.00
C6       1.13393    0.63095    0.60786   1.00
H2       1.20375    0.60078    0.66161   1.00
C6       1.26336    0.58685    0.65231   1.00
C6       1.23244    0.65154    0.63911   1.00
H2       1.35346    0.53688    0.63019   1.00
H2       1.38090    0.49320    0.63137   1.00
H2       1.37917    0.52425    0.67257   1.00
H2       1.34608    0.47765    0.72369   1.00
H2       1.32178    0.43748    0.70303   1.00
H2       1.36964    0.44883    0.68870   1.00
H2       1.18672    0.44221    0.63564   1.00
H2       1.21532    0.44750    0.59380   1.00
H2       1.22352    0.40767    0.62572   1.00
H2       1.25862    0.46626    0.71163   1.00
H2       1.21308    0.44596    0.70104   1.00
H2       1.25550    0.41798    0.69287   1.00
H2       1.30514    0.38612    0.64455   1.00
H2       1.33708    0.37363    0.60605   1.00
H2       1.35332    0.40488    0.64229   1.00
H2       1.26902    0.39188    0.57712   1.00
H2       1.27068    0.43589    0.55140   1.00
H2       1.30828    0.40192    0.54567   1.00
H2       1.26688    0.58515    0.52439   1.00
H2       1.26809    0.63632    0.52368   1.00
H2       1.28048    0.61133    0.56658   1.00
H2       1.20125    0.63123    0.49489   1.00
H2       1.19574    0.58092    0.50222   1.00
H2       1.16122    0.61401    0.52138   1.00
H2       1.10202    0.56165    0.63155   1.00
H2       1.14435    0.53279    0.63232   1.00
H2       1.14035    0.57343    0.66389   1.00
H2       1.14416    0.65136    0.58567   1.00
H2       1.10212    0.62969    0.60537   1.00
H2       1.14085    0.64286    0.63660   1.00
H2       1.28656    0.58927    0.63067   1.00
H2       1.27381    0.59952    0.67963   1.00
H2       1.25834    0.55605    0.65773   1.00
H2       1.24044    0.66119    0.66846   1.00
H2       1.25622    0.65965    0.61947   1.00
H2       1.20657    0.66806    0.63077   1.00
C4       1.00281    0.22916    0.50117   1.00
C4       1.00255    0.27088    0.50049   1.00
C3       1.03690    0.20636    0.49529   1.00
C3       1.03553    0.29384    0.49037   1.00
C3       0.96704    0.20877    0.50747   1.00
C3       0.96756    0.29114    0.51053   1.00
C2       1.00057    0.14488    0.50105   1.00
C2       0.99943    0.35512    0.49895   1.00
C3       1.03581    0.16538    0.49500   1.00
C3       1.03414    0.33481    0.48996   1.00
C3       0.96667    0.16742    0.50781   1.00
C3       0.96631    0.33238    0.50832   1.00
H1       1.06355    0.21885    0.49117   1.00
H1       1.06146    0.28148    0.48275   1.00
C5       0.93189    0.22980    0.51357   1.00
C5       0.93392    0.27020    0.52238   1.00
H1       1.06134    0.15045    0.49031   1.00
H1       1.05899    0.34990    0.48274   1.00
H1       0.94100    0.15320    0.51344   1.00
H1       0.94038    0.34632    0.51317   1.00
O3       0.89668    0.21039    0.51312   1.00
O3       0.90261    0.28901    0.53948   1.00
Si1      0.87170    0.20753    0.47264   1.00
Si1      0.90353    0.29721    0.58638   1.00
C6       0.83587    0.17462    0.48957   1.00
C6       0.85159    0.25402    0.46365   1.00
C6       0.89855    0.18747    0.43351   1.00
C6       0.94551    0.28307    0.61283   1.00
C6       0.89777    0.34802    0.58942   1.00
C6       0.86164    0.27523    0.60649   1.00
C6       0.85145    0.13806    0.51224   1.00
H2       0.82045    0.19209    0.51131   1.00
C6       0.80344    0.15853    0.46149   1.00
H2       0.85033    0.26642    0.49295   1.00
C6       0.87572    0.28366    0.43867   1.00
C6       0.80899    0.25664    0.44739   1.00
H2       0.91171    0.16169    0.44692   1.00
C6       0.87487    0.17228    0.39746   1.00
C6       0.93295    0.21151    0.41499   1.00
C6       0.95827    0.23929    0.61106   1.00
C6       0.98382    0.30775    0.60921   1.00
H2       0.93641    0.28788    0.64297   1.00
H2       0.92530    0.35949    0.57827   1.00
C6       0.86539    0.36622    0.56279   1.00
C6       0.89214    0.36607    0.63095   1.00
H2       0.83839    0.29625    0.60078   1.00
C6       0.84769    0.23664    0.58685   1.00
C6       0.86089    0.26756    0.65154   1.00
H2       0.86981    0.14654    0.53688   1.00
H2       0.86863    0.11910    0.49320   1.00
H2       0.82743    0.12083    0.52425   1.00
H2       0.77631    0.15392    0.47765   1.00
H2       0.79697    0.17822    0.43748   1.00
H2       0.81130    0.13036    0.44883   1.00
H2       0.86436    0.31328    0.44221   1.00
H2       0.90620    0.28468    0.44750   1.00
H2       0.87428    0.27648    0.40767   1.00
H2       0.78837    0.24138    0.46626   1.00
H2       0.79896    0.28692    0.44596   1.00
H2       0.80713    0.24450    0.41798   1.00
H2       0.85545    0.19486    0.38612   1.00
H2       0.89395    0.16292    0.37363   1.00
H2       0.85771    0.14668    0.40488   1.00
H2       0.92288    0.23098    0.39188   1.00
H2       0.94860    0.22932    0.43589   1.00
H2       0.95433    0.19172    0.40192   1.00
H2       0.97561    0.23312    0.58515   1.00
H2       0.97632    0.23191    0.63632   1.00
H2       0.93342    0.21952    0.61133   1.00
H2       1.00511    0.29875    0.63123   1.00
H2       0.99778    0.30426    0.58092   1.00
H2       0.97862    0.33878    0.61401   1.00
H2       0.86845    0.39798    0.56165   1.00
H2       0.86768    0.35565    0.53279   1.00
H2       0.83611    0.35965    0.57343   1.00
H2       0.91433    0.35584    0.65136   1.00
H2       0.89463    0.39788    0.62969   1.00
H2       0.86340    0.35915    0.64286   1.00
H2       0.86933    0.21344    0.58927   1.00
H2       0.82037    0.22619    0.59952   1.00
H2       0.84227    0.24166    0.55605   1.00
H2       0.83154    0.25956    0.66119   1.00
H2       0.88053    0.24378    0.65965   1.00
H2       0.86923    0.29343    0.66806   1.00
C4       1.00117    0.50281    0.22916   1.00
C4       1.00049    0.50255    0.27088   1.00
C3       0.99529    0.53690    0.20636   1.00
C3       0.99037    0.53553    0.29384   1.00
C3       1.00747    0.46704    0.20877   1.00
C3       1.01053    0.46756    0.29114   1.00
C2       1.00105    0.50057    0.14488   1.00
C2       0.99895    0.49943    0.35512   1.00
C3       0.99500    0.53581    0.16538   1.00
C3       0.98996    0.53414    0.33481   1.00
C3       1.00781    0.46667    0.16742   1.00
C3       1.00832    0.46631    0.33238   1.00
H1       0.99117    0.56355    0.21885   1.00
H1       0.98275    0.56146    0.28148   1.00
C5       1.01357    0.43189    0.22980   1.00
C5       1.02238    0.43392    0.27020   1.00
H1       0.99031    0.56134    0.15045   1.00
H1       0.98274    0.55899    0.34990   1.00
H1       1.01344    0.44100    0.15320   1.00
H1       1.01317    0.44038    0.34632   1.00
O3       1.01312    0.39668    0.21039   1.00
O3       1.03948    0.40261    0.28901   1.00
Si1      0.97264    0.37170    0.20753   1.00
Si1      1.08638    0.40353    0.29721   1.00
C6       0.98957    0.33587    0.17462   1.00
C6       0.96365    0.35159    0.25402   1.00
C6       0.93351    0.39855    0.18747   1.00
C6       1.11283    0.44551    0.28307   1.00
C6       1.08942    0.39777    0.34802   1.00
C6       1.10649    0.36164    0.27523   1.00
C6       1.01224    0.35145    0.13806   1.00
H2       1.01131    0.32045    0.19209   1.00
C6       0.96149    0.30344    0.15853   1.00
H2       0.99295    0.35033    0.26642   1.00
C6       0.93867    0.37572    0.28366   1.00
C6       0.94739    0.30899    0.25664   1.00
H2       0.94692    0.41171    0.16169   1.00
C6       0.89746    0.37487    0.17228   1.00
C6       0.91499    0.43295    0.21151   1.00
C6       1.11106    0.45827    0.23929   1.00
C6       1.10921    0.48382    0.30775   1.00
H2       1.14297    0.43641    0.28788   1.00
H2       1.07827    0.42530    0.35949   1.00
C6       1.06279    0.36539    0.36622   1.00
C6       1.13095    0.39214    0.36607   1.00
H2       1.10078    0.33839    0.29625   1.00
C6       1.08685    0.34769    0.23664   1.00
C6       1.15154    0.36089    0.26756   1.00
H2       1.03688    0.36981    0.14654   1.00
H2       0.99320    0.36863    0.11910   1.00
H2       1.02425    0.32743    0.12083   1.00
H2       0.97765    0.27631    0.15392   1.00
H2       0.93748    0.29697    0.17822   1.00
H2       0.94883    0.31130    0.13036   1.00
H2       0.94221    0.36436    0.31328   1.00
H2       0.94750    0.40620    0.28468   1.00
H2       0.90767    0.37428    0.27648   1.00
H2       0.96626    0.28837    0.24138   1.00
H2       0.94596    0.29896    0.28692   1.00
H2       0.91798    0.30713    0.24450   1.00
H2       0.88612    0.35545    0.19486   1.00
H2       0.87363    0.39395    0.16292   1.00
H2       0.90488    0.35771    0.14668   1.00
H2       0.89188    0.42288    0.23098   1.00
H2       0.93589    0.44860    0.22932   1.00
H2       0.90192    0.45433    0.19172   1.00
H2       1.08515    0.47561    0.23312   1.00
H2       1.13632    0.47632    0.23191   1.00
H2       1.11133    0.43342    0.21952   1.00
H2       1.13123    0.50511    0.29875   1.00
H2       1.08092    0.49778    0.30426   1.00
H2       1.11401    0.47862    0.33878   1.00
H2       1.06165    0.36845    0.39798   1.00
H2       1.03279    0.36768    0.35565   1.00
H2       1.07343    0.33611    0.35965   1.00
H2       1.15136    0.41433    0.35584   1.00
H2       1.12969    0.39463    0.39788   1.00
H2       1.14286    0.36340    0.35915   1.00
H2       1.08927    0.36933    0.21344   1.00
H2       1.09952    0.32037    0.22619   1.00
H2       1.05605    0.34227    0.24166   1.00
H2       1.16119    0.33154    0.25956   1.00
H2       1.15965    0.38053    0.24378   1.00
H2       1.16806    0.36923    0.29343   1.00
