data_IRMOF10_SG202_interpen_Ligand8lp_label_d.

_audit_creation_method             'generated by an auxiliary program of Tobunporous'

_symmetry_space_group_name_H-M     'P 1'
_symmetry_Int_Tables_number        1
_symmetry_cell_setting             triclinic

_cell_length_a                    34.2800
_cell_length_b                    34.2800
_cell_length_c                    34.2800
_cell_angle_alpha                 90.0000
_cell_angle_beta                  90.0000
_cell_angle_gamma                 90.0000

loop_
_atom_site_label
_atom_site_fract_x
_atom_site_fract_y
_atom_site_fract_z
_atom_site_occupancy
O1       0.75000    0.75000    0.75000   1.00
Zn1      0.71720    0.78280    0.78280   1.00
Zn1      0.78280    0.71720    0.78280   1.00
Zn1      0.78280    0.78280    0.71720   1.00
Zn1      0.71720    0.71720    0.71720   1.00
O2       0.72650    0.77350    0.83820   1.00
O2       0.72650    0.83820    0.77350   1.00
O2       0.66180    0.77350    0.77350   1.00
O2       0.77350    0.72650    0.83820   1.00
O2       0.83820    0.72650    0.77350   1.00
O2       0.77350    0.66180    0.77350   1.00
O2       0.77350    0.83820    0.72650   1.00
O2       0.83820    0.77350    0.72650   1.00
O2       0.77350    0.77350    0.66180   1.00
O2       0.66180    0.72650    0.72650   1.00
O2       0.72650    0.66180    0.72650   1.00
O2       0.72650    0.72650    0.66180   1.00
C1       0.75000    0.75000    0.85520   1.00
C1       0.75000    0.85520    0.75000   1.00
C1       0.64480    0.75000    0.75000   1.00
C1       0.85520    0.75000    0.75000   1.00
C1       0.75000    0.64480    0.75000   1.00
C1       0.75000    0.75000    0.64480   1.00
O1       0.25000    0.25000    0.75000   1.00
Zn1      0.21720    0.28280    0.78280   1.00
Zn1      0.28280    0.21720    0.78280   1.00
Zn1      0.28280    0.28280    0.71720   1.00
Zn1      0.21720    0.21720    0.71720   1.00
O2       0.22650    0.27350    0.83820   1.00
O2       0.22650    0.33820    0.77350   1.00
O2       0.16180    0.27350    0.77350   1.00
O2       0.27350    0.22650    0.83820   1.00
O2       0.33820    0.22650    0.77350   1.00
O2       0.27350    0.16180    0.77350   1.00
O2       0.27350    0.33820    0.72650   1.00
O2       0.33820    0.27350    0.72650   1.00
O2       0.27350    0.27350    0.66180   1.00
O2       0.16180    0.22650    0.72650   1.00
O2       0.22650    0.16180    0.72650   1.00
O2       0.22650    0.22650    0.66180   1.00
C1       0.25000    0.25000    0.85520   1.00
C1       0.25000    0.35520    0.75000   1.00
C1       0.14480    0.25000    0.75000   1.00
C1       0.35520    0.25000    0.75000   1.00
C1       0.25000    0.14480    0.75000   1.00
C1       0.25000    0.25000    0.64480   1.00
O1       0.25000    0.75000    0.25000   1.00
Zn1      0.21720    0.78280    0.28280   1.00
Zn1      0.28280    0.71720    0.28280   1.00
Zn1      0.28280    0.78280    0.21720   1.00
Zn1      0.21720    0.71720    0.21720   1.00
O2       0.22650    0.77350    0.33820   1.00
O2       0.22650    0.83820    0.27350   1.00
O2       0.16180    0.77350    0.27350   1.00
O2       0.27350    0.72650    0.33820   1.00
O2       0.33820    0.72650    0.27350   1.00
O2       0.27350    0.66180    0.27350   1.00
O2       0.27350    0.83820    0.22650   1.00
O2       0.33820    0.77350    0.22650   1.00
O2       0.27350    0.77350    0.16180   1.00
O2       0.16180    0.72650    0.22650   1.00
O2       0.22650    0.66180    0.22650   1.00
O2       0.22650    0.72650    0.16180   1.00
C1       0.25000    0.75000    0.35520   1.00
C1       0.25000    0.85520    0.25000   1.00
C1       0.14480    0.75000    0.25000   1.00
C1       0.35520    0.75000    0.25000   1.00
C1       0.25000    0.64480    0.25000   1.00
C1       0.25000    0.75000    0.14480   1.00
O1       0.75000    0.25000    0.25000   1.00
Zn1      0.71720    0.28280    0.28280   1.00
Zn1      0.78280    0.21720    0.28280   1.00
Zn1      0.78280    0.28280    0.21720   1.00
Zn1      0.71720    0.21720    0.21720   1.00
O2       0.72650    0.27350    0.33820   1.00
O2       0.72650    0.33820    0.27350   1.00
O2       0.66180    0.27350    0.27350   1.00
O2       0.77350    0.22650    0.33820   1.00
O2       0.83820    0.22650    0.27350   1.00
O2       0.77350    0.16180    0.27350   1.00
O2       0.77350    0.33820    0.22650   1.00
O2       0.83820    0.27350    0.22650   1.00
O2       0.77350    0.27350    0.16180   1.00
O2       0.66180    0.22650    0.22650   1.00
O2       0.72650    0.16180    0.22650   1.00
O2       0.72650    0.22650    0.16180   1.00
C1       0.75000    0.25000    0.35520   1.00
C1       0.75000    0.35520    0.25000   1.00
C1       0.64480    0.25000    0.25000   1.00
C1       0.85520    0.25000    0.25000   1.00
C1       0.75000    0.14480    0.25000   1.00
C1       0.75000    0.25000    0.14480   1.00
O1       0.25000    0.25000    0.25000   1.00
Zn1      0.28280    0.21720    0.21720   1.00
Zn1      0.21720    0.28280    0.21720   1.00
Zn1      0.21720    0.21720    0.28280   1.00
Zn1      0.28280    0.28280    0.28280   1.00
O2       0.27350    0.22650    0.16180   1.00
O2       0.27350    0.16180    0.22650   1.00
O2       0.33820    0.22650    0.22650   1.00
O2       0.22650    0.27350    0.16180   1.00
O2       0.16180    0.27350    0.22650   1.00
O2       0.22650    0.33820    0.22650   1.00
O2       0.22650    0.16180    0.27350   1.00
O2       0.16180    0.22650    0.27350   1.00
O2       0.22650    0.22650    0.33820   1.00
O2       0.33820    0.27350    0.27350   1.00
O2       0.27350    0.33820    0.27350   1.00
O2       0.27350    0.27350    0.33820   1.00
C1       0.25000    0.25000    0.14480   1.00
C1       0.25000    0.14480    0.25000   1.00
C1       0.35520    0.25000    0.25000   1.00
C1       0.14480    0.25000    0.25000   1.00
C1       0.25000    0.35520    0.25000   1.00
C1       0.25000    0.25000    0.35520   1.00
O1       0.75000    0.75000    0.25000   1.00
Zn1      0.78280    0.71720    0.21720   1.00
Zn1      0.71720    0.78280    0.21720   1.00
Zn1      0.71720    0.71720    0.28280   1.00
Zn1      0.78280    0.78280    0.28280   1.00
O2       0.77350    0.72650    0.16180   1.00
O2       0.77350    0.66180    0.22650   1.00
O2       0.83820    0.72650    0.22650   1.00
O2       0.72650    0.77350    0.16180   1.00
O2       0.66180    0.77350    0.22650   1.00
O2       0.72650    0.83820    0.22650   1.00
O2       0.72650    0.66180    0.27350   1.00
O2       0.66180    0.72650    0.27350   1.00
O2       0.72650    0.72650    0.33820   1.00
O2       0.83820    0.77350    0.27350   1.00
O2       0.77350    0.83820    0.27350   1.00
O2       0.77350    0.77350    0.33820   1.00
C1       0.75000    0.75000    0.14480   1.00
C1       0.75000    0.64480    0.25000   1.00
C1       0.85520    0.75000    0.25000   1.00
C1       0.64480    0.75000    0.25000   1.00
C1       0.75000    0.85520    0.25000   1.00
C1       0.75000    0.75000    0.35520   1.00
O1       0.75000    0.25000    0.75000   1.00
Zn1      0.78280    0.21720    0.71720   1.00
Zn1      0.71720    0.28280    0.71720   1.00
Zn1      0.71720    0.21720    0.78280   1.00
Zn1      0.78280    0.28280    0.78280   1.00
O2       0.77350    0.22650    0.66180   1.00
O2       0.77350    0.16180    0.72650   1.00
O2       0.83820    0.22650    0.72650   1.00
O2       0.72650    0.27350    0.66180   1.00
O2       0.66180    0.27350    0.72650   1.00
O2       0.72650    0.33820    0.72650   1.00
O2       0.72650    0.16180    0.77350   1.00
O2       0.66180    0.22650    0.77350   1.00
O2       0.72650    0.22650    0.83820   1.00
O2       0.83820    0.27350    0.77350   1.00
O2       0.77350    0.33820    0.77350   1.00
O2       0.77350    0.27350    0.83820   1.00
C1       0.75000    0.25000    0.64480   1.00
C1       0.75000    0.14480    0.75000   1.00
C1       0.85520    0.25000    0.75000   1.00
C1       0.64480    0.25000    0.75000   1.00
C1       0.75000    0.35520    0.75000   1.00
C1       0.75000    0.25000    0.85520   1.00
O1       0.25000    0.75000    0.75000   1.00
Zn1      0.28280    0.71720    0.71720   1.00
Zn1      0.21720    0.78280    0.71720   1.00
Zn1      0.21720    0.71720    0.78280   1.00
Zn1      0.28280    0.78280    0.78280   1.00
O2       0.27350    0.72650    0.66180   1.00
O2       0.27350    0.66180    0.72650   1.00
O2       0.33820    0.72650    0.72650   1.00
O2       0.22650    0.77350    0.66180   1.00
O2       0.16180    0.77350    0.72650   1.00
O2       0.22650    0.83820    0.72650   1.00
O2       0.22650    0.66180    0.77350   1.00
O2       0.16180    0.72650    0.77350   1.00
O2       0.22650    0.72650    0.83820   1.00
O2       0.33820    0.77350    0.77350   1.00
O2       0.27350    0.83820    0.77350   1.00
O2       0.27350    0.77350    0.83820   1.00
C1       0.25000    0.75000    0.64480   1.00
C1       0.25000    0.64480    0.75000   1.00
C1       0.35520    0.75000    0.75000   1.00
C1       0.14480    0.75000    0.75000   1.00
C1       0.25000    0.85520    0.75000   1.00
C1       0.25000    0.75000    0.85520   1.00
O1       1.00000    1.00000    1.00000   1.00
Zn1      0.96720    1.03280    1.03280   1.00
Zn1      1.03280    0.96720    1.03280   1.00
Zn1      1.03280    1.03280    0.96720   1.00
Zn1      0.96720    0.96720    0.96720   1.00
O2       0.97650    1.02350    1.08820   1.00
O2       0.97650    1.08820    1.02350   1.00
O2       0.91180    1.02350    1.02350   1.00
O2       1.02350    0.97650    1.08820   1.00
O2       1.08820    0.97650    1.02350   1.00
O2       1.02350    0.91180    1.02350   1.00
O2       1.02350    1.08820    0.97650   1.00
O2       1.08820    1.02350    0.97650   1.00
O2       1.02350    1.02350    0.91180   1.00
O2       0.91180    0.97650    0.97650   1.00
O2       0.97650    0.91180    0.97650   1.00
O2       0.97650    0.97650    0.91180   1.00
C1       1.00000    1.00000    1.10520   1.00
C1       1.00000    1.10520    1.00000   1.00
C1       0.89480    1.00000    1.00000   1.00
C1       1.10520    1.00000    1.00000   1.00
C1       1.00000    0.89480    1.00000   1.00
C1       1.00000    1.00000    0.89480   1.00
O1       0.50000    0.50000    1.00000   1.00
Zn1      0.46720    0.53280    1.03280   1.00
Zn1      0.53280    0.46720    1.03280   1.00
Zn1      0.53280    0.53280    0.96720   1.00
Zn1      0.46720    0.46720    0.96720   1.00
O2       0.47650    0.52350    1.08820   1.00
O2       0.47650    0.58820    1.02350   1.00
O2       0.41180    0.52350    1.02350   1.00
O2       0.52350    0.47650    1.08820   1.00
O2       0.58820    0.47650    1.02350   1.00
O2       0.52350    0.41180    1.02350   1.00
O2       0.52350    0.58820    0.97650   1.00
O2       0.58820    0.52350    0.97650   1.00
O2       0.52350    0.52350    0.91180   1.00
O2       0.41180    0.47650    0.97650   1.00
O2       0.47650    0.41180    0.97650   1.00
O2       0.47650    0.47650    0.91180   1.00
C1       0.50000    0.50000    1.10520   1.00
C1       0.50000    0.60520    1.00000   1.00
C1       0.39480    0.50000    1.00000   1.00
C1       0.60520    0.50000    1.00000   1.00
C1       0.50000    0.39480    1.00000   1.00
C1       0.50000    0.50000    0.89480   1.00
O1       0.50000    1.00000    0.50000   1.00
Zn1      0.46720    1.03280    0.53280   1.00
Zn1      0.53280    0.96720    0.53280   1.00
Zn1      0.53280    1.03280    0.46720   1.00
Zn1      0.46720    0.96720    0.46720   1.00
O2       0.47650    1.02350    0.58820   1.00
O2       0.47650    1.08820    0.52350   1.00
O2       0.41180    1.02350    0.52350   1.00
O2       0.52350    0.97650    0.58820   1.00
O2       0.58820    0.97650    0.52350   1.00
O2       0.52350    0.91180    0.52350   1.00
O2       0.52350    1.08820    0.47650   1.00
O2       0.58820    1.02350    0.47650   1.00
O2       0.52350    1.02350    0.41180   1.00
O2       0.41180    0.97650    0.47650   1.00
O2       0.47650    0.91180    0.47650   1.00
O2       0.47650    0.97650    0.41180   1.00
C1       0.50000    1.00000    0.60520   1.00
C1       0.50000    1.10520    0.50000   1.00
C1       0.39480    1.00000    0.50000   1.00
C1       0.60520    1.00000    0.50000   1.00
C1       0.50000    0.89480    0.50000   1.00
C1       0.50000    1.00000    0.39480   1.00
O1       1.00000    0.50000    0.50000   1.00
Zn1      0.96720    0.53280    0.53280   1.00
Zn1      1.03280    0.46720    0.53280   1.00
Zn1      1.03280    0.53280    0.46720   1.00
Zn1      0.96720    0.46720    0.46720   1.00
O2       0.97650    0.52350    0.58820   1.00
O2       0.97650    0.58820    0.52350   1.00
O2       0.91180    0.52350    0.52350   1.00
O2       1.02350    0.47650    0.58820   1.00
O2       1.08820    0.47650    0.52350   1.00
O2       1.02350    0.41180    0.52350   1.00
O2       1.02350    0.58820    0.47650   1.00
O2       1.08820    0.52350    0.47650   1.00
O2       1.02350    0.52350    0.41180   1.00
O2       0.91180    0.47650    0.47650   1.00
O2       0.97650    0.41180    0.47650   1.00
O2       0.97650    0.47650    0.41180   1.00
C1       1.00000    0.50000    0.60520   1.00
C1       1.00000    0.60520    0.50000   1.00
C1       0.89480    0.50000    0.50000   1.00
C1       1.10520    0.50000    0.50000   1.00
C1       1.00000    0.39480    0.50000   1.00
C1       1.00000    0.50000    0.39480   1.00
O1       0.50000    0.50000    0.50000   1.00
Zn1      0.53280    0.46720    0.46720   1.00
Zn1      0.46720    0.53280    0.46720   1.00
Zn1      0.46720    0.46720    0.53280   1.00
Zn1      0.53280    0.53280    0.53280   1.00
O2       0.52350    0.47650    0.41180   1.00
O2       0.52350    0.41180    0.47650   1.00
O2       0.58820    0.47650    0.47650   1.00
O2       0.47650    0.52350    0.41180   1.00
O2       0.41180    0.52350    0.47650   1.00
O2       0.47650    0.58820    0.47650   1.00
O2       0.47650    0.41180    0.52350   1.00
O2       0.41180    0.47650    0.52350   1.00
O2       0.47650    0.47650    0.58820   1.00
O2       0.58820    0.52350    0.52350   1.00
O2       0.52350    0.58820    0.52350   1.00
O2       0.52350    0.52350    0.58820   1.00
C1       0.50000    0.50000    0.39480   1.00
C1       0.50000    0.39480    0.50000   1.00
C1       0.60520    0.50000    0.50000   1.00
C1       0.39480    0.50000    0.50000   1.00
C1       0.50000    0.60520    0.50000   1.00
C1       0.50000    0.50000    0.60520   1.00
O1       1.00000    1.00000    0.50000   1.00
Zn1      1.03280    0.96720    0.46720   1.00
Zn1      0.96720    1.03280    0.46720   1.00
Zn1      0.96720    0.96720    0.53280   1.00
Zn1      1.03280    1.03280    0.53280   1.00
O2       1.02350    0.97650    0.41180   1.00
O2       1.02350    0.91180    0.47650   1.00
O2       1.08820    0.97650    0.47650   1.00
O2       0.97650    1.02350    0.41180   1.00
O2       0.91180    1.02350    0.47650   1.00
O2       0.97650    1.08820    0.47650   1.00
O2       0.97650    0.91180    0.52350   1.00
O2       0.91180    0.97650    0.52350   1.00
O2       0.97650    0.97650    0.58820   1.00
O2       1.08820    1.02350    0.52350   1.00
O2       1.02350    1.08820    0.52350   1.00
O2       1.02350    1.02350    0.58820   1.00
C1       1.00000    1.00000    0.39480   1.00
C1       1.00000    0.89480    0.50000   1.00
C1       1.10520    1.00000    0.50000   1.00
C1       0.89480    1.00000    0.50000   1.00
C1       1.00000    1.10520    0.50000   1.00
C1       1.00000    1.00000    0.60520   1.00
O1       1.00000    0.50000    1.00000   1.00
Zn1      1.03280    0.46720    0.96720   1.00
Zn1      0.96720    0.53280    0.96720   1.00
Zn1      0.96720    0.46720    1.03280   1.00
Zn1      1.03280    0.53280    1.03280   1.00
O2       1.02350    0.47650    0.91180   1.00
O2       1.02350    0.41180    0.97650   1.00
O2       1.08820    0.47650    0.97650   1.00
O2       0.97650    0.52350    0.91180   1.00
O2       0.91180    0.52350    0.97650   1.00
O2       0.97650    0.58820    0.97650   1.00
O2       0.97650    0.41180    1.02350   1.00
O2       0.91180    0.47650    1.02350   1.00
O2       0.97650    0.47650    1.08820   1.00
O2       1.08820    0.52350    1.02350   1.00
O2       1.02350    0.58820    1.02350   1.00
O2       1.02350    0.52350    1.08820   1.00
C1       1.00000    0.50000    0.89480   1.00
C1       1.00000    0.39480    1.00000   1.00
C1       1.10520    0.50000    1.00000   1.00
C1       0.89480    0.50000    1.00000   1.00
C1       1.00000    0.60520    1.00000   1.00
C1       1.00000    0.50000    1.10520   1.00
O1       0.50000    1.00000    1.00000   1.00
Zn1      0.53280    0.96720    0.96720   1.00
Zn1      0.46720    1.03280    0.96720   1.00
Zn1      0.46720    0.96720    1.03280   1.00
Zn1      0.53280    1.03280    1.03280   1.00
O2       0.52350    0.97650    0.91180   1.00
O2       0.52350    0.91180    0.97650   1.00
O2       0.58820    0.97650    0.97650   1.00
O2       0.47650    1.02350    0.91180   1.00
O2       0.41180    1.02350    0.97650   1.00
O2       0.47650    1.08820    0.97650   1.00
O2       0.47650    0.91180    1.02350   1.00
O2       0.41180    0.97650    1.02350   1.00
O2       0.47650    0.97650    1.08820   1.00
O2       0.58820    1.02350    1.02350   1.00
O2       0.52350    1.08820    1.02350   1.00
O2       0.52350    1.02350    1.08820   1.00
C1       0.50000    1.00000    0.89480   1.00
C1       0.50000    0.89480    1.00000   1.00
C1       0.60520    1.00000    1.00000   1.00
C1       0.39480    1.00000    1.00000   1.00
C1       0.50000    1.10520    1.00000   1.00
C1       0.50000    1.00000    1.10520   1.00
C4       0.75005    0.75008    0.97915   1.00
C4       0.74995    0.74992    1.02085   1.00
C3       0.74042    0.78351    0.95708   1.00
C3       0.78506    0.75237    1.04225   1.00
C3       0.76005    0.71604    0.95816   1.00
C3a      0.71446    0.74781    1.04263   1.00
C2       0.75010    0.74850    0.89483   1.00
C2       0.75022    0.75145    1.10517   1.00
C3       0.74044    0.78266    0.91566   1.00
C3       0.78513    0.75314    1.08359   1.00
C3       0.75990    0.71523    0.91680   1.00
C3       0.71516    0.74874    1.08415   1.00
H1       0.73282    0.81034    0.97192   1.00
H1       0.81262    0.75399    1.02685   1.00
H1       0.73283    0.80881    0.89968   1.00
H1       0.81266    0.75514    1.09895   1.00
H1       0.76721    0.68842    0.90179   1.00
H1       0.68814    0.74700    1.10043   1.00
C5       0.67540    0.74372    1.02239   1.00
H1       0.76701    0.68961    0.97401   1.00
H2       0.65097    0.74650    1.04354   1.00
H2       0.67183    0.76785    1.00103   1.00
N1       0.67237    0.70583    1.00292   1.00
C6       0.67496    0.67060    1.02012   1.00
C6       0.66610    0.69985    0.96460   1.00
C6       0.67067    0.64173    0.99243   1.00
C6       0.66504    0.66034    0.95711   1.00
H3       0.67994    0.66603    1.05099   1.00
H3       0.66295    0.72278    0.94309   1.00
H3       0.67150    0.61059    0.99741   1.00
H3       0.66070    0.64665    0.92903   1.00
C4       0.75008    0.97915    0.75005   1.00
C4       0.74992    1.02085    0.74995   1.00
C3       0.78351    0.95708    0.74042   1.00
C3       0.75237    1.04225    0.78506   1.00
C3       0.71604    0.95816    0.76005   1.00
C3a      0.74781    1.04263    0.71446   1.00
C2       0.74850    0.89483    0.75010   1.00
C2       0.75145    1.10517    0.75022   1.00
C3       0.78266    0.91566    0.74044   1.00
C3       0.75314    1.08359    0.78513   1.00
C3       0.71523    0.91680    0.75990   1.00
C3       0.74874    1.08415    0.71516   1.00
H1       0.81034    0.97192    0.73282   1.00
H1       0.75399    1.02685    0.81262   1.00
H1       0.80881    0.89968    0.73283   1.00
H1       0.75514    1.09895    0.81266   1.00
H1       0.68842    0.90179    0.76721   1.00
H1       0.74700    1.10043    0.68814   1.00
C5       0.74372    1.02239    0.67540   1.00
H1       0.68961    0.97401    0.76701   1.00
H2       0.74650    1.04354    0.65097   1.00
H2       0.76785    1.00103    0.67183   1.00
N1       0.70583    1.00292    0.67237   1.00
C6       0.67060    1.02012    0.67496   1.00
C6       0.69985    0.96460    0.66610   1.00
C6       0.64173    0.99243    0.67067   1.00
C6       0.66034    0.95711    0.66504   1.00
H3       0.66603    1.05099    0.67994   1.00
H3       0.72278    0.94309    0.66295   1.00
H3       0.61059    0.99741    0.67150   1.00
H3       0.64665    0.92903    0.66070   1.00
C4       0.52085    0.75005    0.74992   1.00
C4       0.47915    0.74995    0.75008   1.00
C3       0.54292    0.74042    0.71649   1.00
C3       0.45775    0.78506    0.74763   1.00
C3       0.54184    0.76005    0.78396   1.00
C3a      0.45737    0.71446    0.75219   1.00
C2       0.60517    0.75010    0.75150   1.00
C2       0.39483    0.75022    0.74855   1.00
C3       0.58434    0.74044    0.71734   1.00
C3       0.41641    0.78513    0.74686   1.00
C3       0.58320    0.75990    0.78477   1.00
C3       0.41585    0.71516    0.75126   1.00
H1       0.52808    0.73282    0.68966   1.00
H1       0.47315    0.81262    0.74601   1.00
H1       0.60032    0.73283    0.69119   1.00
H1       0.40105    0.81266    0.74486   1.00
H1       0.59821    0.76721    0.81158   1.00
H1       0.39957    0.68814    0.75300   1.00
C5       0.47761    0.67540    0.75628   1.00
H1       0.52599    0.76701    0.81039   1.00
H2       0.45646    0.65097    0.75350   1.00
H2       0.49897    0.67183    0.73215   1.00
N1       0.49708    0.67237    0.79417   1.00
C6       0.47988    0.67496    0.82940   1.00
C6       0.53540    0.66610    0.80015   1.00
C6       0.50757    0.67067    0.85827   1.00
C6       0.54289    0.66504    0.83966   1.00
H3       0.44901    0.67994    0.83397   1.00
H3       0.55691    0.66295    0.77722   1.00
H3       0.50259    0.67150    0.88941   1.00
H3       0.57097    0.66070    0.85335   1.00
C4       0.97915    0.75005    0.75008   1.00
C4       1.02085    0.74995    0.74992   1.00
C3       0.95708    0.74042    0.78351   1.00
C3       1.04225    0.78506    0.75237   1.00
C3       0.95816    0.76005    0.71604   1.00
C3a      1.04263    0.71446    0.74781   1.00
C2       0.89483    0.75010    0.74850   1.00
C2       1.10517    0.75022    0.75145   1.00
C3       0.91566    0.74044    0.78266   1.00
C3       1.08359    0.78513    0.75314   1.00
C3       0.91680    0.75990    0.71523   1.00
C3       1.08415    0.71516    0.74874   1.00
H1       0.97192    0.73282    0.81034   1.00
H1       1.02685    0.81262    0.75399   1.00
H1       0.89968    0.73283    0.80881   1.00
H1       1.09895    0.81266    0.75514   1.00
H1       0.90179    0.76721    0.68842   1.00
H1       1.10043    0.68814    0.74700   1.00
C5       1.02239    0.67540    0.74372   1.00
H1       0.97401    0.76701    0.68961   1.00
H2       1.04354    0.65097    0.74650   1.00
H2       1.00103    0.67183    0.76785   1.00
N1       1.00292    0.67237    0.70583   1.00
C6       1.02012    0.67496    0.67060   1.00
C6       0.96460    0.66610    0.69985   1.00
C6       0.99243    0.67067    0.64173   1.00
C6       0.95711    0.66504    0.66034   1.00
H3       1.05099    0.67994    0.66603   1.00
H3       0.94309    0.66295    0.72278   1.00
H3       0.99741    0.67150    0.61059   1.00
H3       0.92903    0.66070    0.64665   1.00
C4       0.74992    0.52085    0.75005   1.00
C4       0.75008    0.47915    0.74995   1.00
C3       0.71649    0.54292    0.74042   1.00
C3       0.74763    0.45775    0.78506   1.00
C3       0.78396    0.54184    0.76005   1.00
C3a      0.75219    0.45737    0.71446   1.00
C2       0.75150    0.60517    0.75010   1.00
C2       0.74855    0.39483    0.75022   1.00
C3       0.71734    0.58434    0.74044   1.00
C3       0.74686    0.41641    0.78513   1.00
C3       0.78477    0.58320    0.75990   1.00
C3       0.75126    0.41585    0.71516   1.00
H1       0.68966    0.52808    0.73282   1.00
H1       0.74601    0.47315    0.81262   1.00
H1       0.69119    0.60032    0.73283   1.00
H1       0.74486    0.40105    0.81266   1.00
H1       0.81158    0.59821    0.76721   1.00
H1       0.75300    0.39957    0.68814   1.00
C5       0.75628    0.47761    0.67540   1.00
H1       0.81039    0.52599    0.76701   1.00
H2       0.75350    0.45646    0.65097   1.00
H2       0.73215    0.49897    0.67183   1.00
N1       0.79417    0.49708    0.67237   1.00
C6       0.82940    0.47988    0.67496   1.00
C6       0.80015    0.53540    0.66610   1.00
C6       0.85827    0.50757    0.67067   1.00
C6       0.83966    0.54289    0.66504   1.00
H3       0.83397    0.44901    0.67994   1.00
H3       0.77722    0.55691    0.66295   1.00
H3       0.88941    0.50259    0.67150   1.00
H3       0.85335    0.57097    0.66070   1.00
C4       0.75005    0.74992    0.52085   1.00
C4       0.74995    0.75008    0.47915   1.00
C3       0.74042    0.71649    0.54292   1.00
C3       0.78506    0.74763    0.45775   1.00
C3       0.76005    0.78396    0.54184   1.00
C3a      0.71446    0.75219    0.45737   1.00
C2       0.75010    0.75150    0.60517   1.00
C2       0.75022    0.74855    0.39483   1.00
C3       0.74044    0.71734    0.58434   1.00
C3       0.78513    0.74686    0.41641   1.00
C3       0.75990    0.78477    0.58320   1.00
C3       0.71516    0.75126    0.41585   1.00
H1       0.73282    0.68966    0.52808   1.00
H1       0.81262    0.74601    0.47315   1.00
H1       0.73283    0.69119    0.60032   1.00
H1       0.81266    0.74486    0.40105   1.00
H1       0.76721    0.81158    0.59821   1.00
H1       0.68814    0.75300    0.39957   1.00
C5       0.67540    0.75628    0.47761   1.00
H1       0.76701    0.81039    0.52599   1.00
H2       0.65097    0.75350    0.45646   1.00
H2       0.67183    0.73215    0.49897   1.00
N1       0.67237    0.79417    0.49708   1.00
C6       0.67496    0.82940    0.47988   1.00
C6       0.66610    0.80015    0.53540   1.00
C6       0.67067    0.85827    0.50757   1.00
C6       0.66504    0.83966    0.54289   1.00
H3       0.67994    0.83397    0.44901   1.00
H3       0.66295    0.77722    0.55691   1.00
H3       0.67150    0.88941    0.50259   1.00
H3       0.66070    0.85335    0.57097   1.00
C4       0.25005    0.25008    0.97915   1.00
C4       0.24995    0.24992    1.02085   1.00
C3       0.24042    0.28351    0.95708   1.00
C3       0.28506    0.25237    1.04225   1.00
C3       0.26005    0.21604    0.95816   1.00
C3a      0.21446    0.24781    1.04263   1.00
C2       0.25010    0.24850    0.89483   1.00
C2       0.25022    0.25145    1.10517   1.00
C3       0.24044    0.28266    0.91566   1.00
C3       0.28513    0.25314    1.08359   1.00
C3       0.25990    0.21523    0.91680   1.00
C3       0.21516    0.24874    1.08415   1.00
H1       0.23282    0.31034    0.97192   1.00
H1       0.31262    0.25399    1.02685   1.00
H1       0.23283    0.30881    0.89968   1.00
H1       0.31266    0.25514    1.09895   1.00
H1       0.26721    0.18842    0.90179   1.00
H1       0.18814    0.24700    1.10043   1.00
C5       0.17540    0.24372    1.02239   1.00
H1       0.26701    0.18961    0.97401   1.00
H2       0.15097    0.24650    1.04354   1.00
H2       0.17183    0.26785    1.00103   1.00
N1       0.17237    0.20583    1.00292   1.00
C6       0.17496    0.17060    1.02012   1.00
C6       0.16610    0.19985    0.96460   1.00
C6       0.17067    0.14173    0.99243   1.00
C6       0.16504    0.16034    0.95711   1.00
H3       0.17994    0.16603    1.05099   1.00
H3       0.16295    0.22278    0.94309   1.00
H3       0.17150    0.11059    0.99741   1.00
H3       0.16070    0.14665    0.92903   1.00
C4       0.25008    0.47915    0.75005   1.00
C4       0.24992    0.52085    0.74995   1.00
C3       0.28351    0.45708    0.74042   1.00
C3       0.25237    0.54225    0.78506   1.00
C3       0.21604    0.45816    0.76005   1.00
C3a      0.24781    0.54263    0.71446   1.00
C2       0.24850    0.39483    0.75010   1.00
C2       0.25145    0.60517    0.75022   1.00
C3       0.28266    0.41566    0.74044   1.00
C3       0.25314    0.58359    0.78513   1.00
C3       0.21523    0.41680    0.75990   1.00
C3       0.24874    0.58415    0.71516   1.00
H1       0.31034    0.47192    0.73282   1.00
H1       0.25399    0.52685    0.81262   1.00
H1       0.30881    0.39968    0.73283   1.00
H1       0.25514    0.59895    0.81266   1.00
H1       0.18842    0.40179    0.76721   1.00
H1       0.24700    0.60043    0.68814   1.00
C5       0.24372    0.52239    0.67540   1.00
H1       0.18961    0.47401    0.76701   1.00
H2       0.24650    0.54354    0.65097   1.00
H2       0.26785    0.50103    0.67183   1.00
N1       0.20583    0.50292    0.67237   1.00
C6       0.17060    0.52012    0.67496   1.00
C6       0.19985    0.46460    0.66610   1.00
C6       0.14173    0.49243    0.67067   1.00
C6       0.16034    0.45711    0.66504   1.00
H3       0.16603    0.55099    0.67994   1.00
H3       0.22278    0.44309    0.66295   1.00
H3       0.11059    0.49741    0.67150   1.00
H3       0.14665    0.42903    0.66070   1.00
C4       0.02085    0.25005    0.74992   1.00
C4       -0.02085   0.24995    0.75008   1.00
C3       0.04292    0.24042    0.71649   1.00
C3       -0.04225   0.28506    0.74763   1.00
C3       0.04184    0.26005    0.78396   1.00
C3a      -0.04263   0.21446    0.75219   1.00
C2       0.10517    0.25010    0.75150   1.00
C2       -0.10517   0.25022    0.74855   1.00
C3       0.08434    0.24044    0.71734   1.00
C3       -0.08359   0.28513    0.74686   1.00
C3       0.08320    0.25990    0.78477   1.00
C3       -0.08415   0.21516    0.75126   1.00
H1       0.02808    0.23282    0.68966   1.00
H1       -0.02685   0.31262    0.74601   1.00
H1       0.10032    0.23283    0.69119   1.00
H1       -0.09895   0.31266    0.74486   1.00
H1       0.09821    0.26721    0.81158   1.00
H1       -0.10043   0.18814    0.75300   1.00
C5       -0.02239   0.17540    0.75628   1.00
H1       0.02599    0.26701    0.81039   1.00
H2       -0.04354   0.15097    0.75350   1.00
H2       -0.00103   0.17183    0.73215   1.00
N1       -0.00292   0.17237    0.79417   1.00
C6       -0.02012   0.17496    0.82940   1.00
C6       0.03540    0.16610    0.80015   1.00
C6       0.00757    0.17067    0.85827   1.00
C6       0.04289    0.16504    0.83966   1.00
H3       -0.05099   0.17994    0.83397   1.00
H3       0.05691    0.16295    0.77722   1.00
H3       0.00259    0.17150    0.88941   1.00
H3       0.07097    0.16070    0.85335   1.00
C4       0.47915    0.25005    0.75008   1.00
C4       0.52085    0.24995    0.74992   1.00
C3       0.45708    0.24042    0.78351   1.00
C3       0.54225    0.28506    0.75237   1.00
C3       0.45816    0.26005    0.71604   1.00
C3a      0.54263    0.21446    0.74781   1.00
C2       0.39483    0.25010    0.74850   1.00
C2       0.60517    0.25022    0.75145   1.00
C3       0.41566    0.24044    0.78266   1.00
C3       0.58359    0.28513    0.75314   1.00
C3       0.41680    0.25990    0.71523   1.00
C3       0.58415    0.21516    0.74874   1.00
H1       0.47192    0.23282    0.81034   1.00
H1       0.52685    0.31262    0.75399   1.00
H1       0.39968    0.23283    0.80881   1.00
H1       0.59895    0.31266    0.75514   1.00
H1       0.40179    0.26721    0.68842   1.00
H1       0.60043    0.18814    0.74700   1.00
C5       0.52239    0.17540    0.74372   1.00
H1       0.47401    0.26701    0.68961   1.00
H2       0.54354    0.15097    0.74650   1.00
H2       0.50103    0.17183    0.76785   1.00
N1       0.50292    0.17237    0.70583   1.00
C6       0.52012    0.17496    0.67060   1.00
C6       0.46460    0.16610    0.69985   1.00
C6       0.49243    0.17067    0.64173   1.00
C6       0.45711    0.16504    0.66034   1.00
H3       0.55099    0.17994    0.66603   1.00
H3       0.44309    0.16295    0.72278   1.00
H3       0.49741    0.17150    0.61059   1.00
H3       0.42903    0.16070    0.64665   1.00
C4       0.24992    0.02085    0.75005   1.00
C4       0.25008    -0.02085   0.74995   1.00
C3       0.21649    0.04292    0.74042   1.00
C3       0.24763    -0.04225   0.78506   1.00
C3       0.28396    0.04184    0.76005   1.00
C3a      0.25219    -0.04263   0.71446   1.00
C2       0.25150    0.10517    0.75010   1.00
C2       0.24855    -0.10517   0.75022   1.00
C3       0.21734    0.08434    0.74044   1.00
C3       0.24686    -0.08359   0.78513   1.00
C3       0.28477    0.08320    0.75990   1.00
C3       0.25126    -0.08415   0.71516   1.00
H1       0.18966    0.02808    0.73282   1.00
H1       0.24601    -0.02685   0.81262   1.00
H1       0.19119    0.10032    0.73283   1.00
H1       0.24486    -0.09895   0.81266   1.00
H1       0.31158    0.09821    0.76721   1.00
H1       0.25300    -0.10043   0.68814   1.00
C5       0.25628    -0.02239   0.67540   1.00
H1       0.31039    0.02599    0.76701   1.00
H2       0.25350    -0.04354   0.65097   1.00
H2       0.23215    -0.00103   0.67183   1.00
N1       0.29417    -0.00292   0.67237   1.00
C6       0.32940    -0.02012   0.67496   1.00
C6       0.30015    0.03540    0.66610   1.00
C6       0.35827    0.00757    0.67067   1.00
C6       0.33966    0.04289    0.66504   1.00
H3       0.33397    -0.05099   0.67994   1.00
H3       0.27722    0.05691    0.66295   1.00
H3       0.38941    0.00259    0.67150   1.00
H3       0.35335    0.07097    0.66070   1.00
C4       0.25005    0.24992    0.52085   1.00
C4       0.24995    0.25008    0.47915   1.00
C3       0.24042    0.21649    0.54292   1.00
C3       0.28506    0.24763    0.45775   1.00
C3       0.26005    0.28396    0.54184   1.00
C3a      0.21446    0.25219    0.45737   1.00
C2       0.25010    0.25150    0.60517   1.00
C2       0.25022    0.24855    0.39483   1.00
C3       0.24044    0.21734    0.58434   1.00
C3       0.28513    0.24686    0.41641   1.00
C3       0.25990    0.28477    0.58320   1.00
C3       0.21516    0.25126    0.41585   1.00
H1       0.23282    0.18966    0.52808   1.00
H1       0.31262    0.24601    0.47315   1.00
H1       0.23283    0.19119    0.60032   1.00
H1       0.31266    0.24486    0.40105   1.00
H1       0.26721    0.31158    0.59821   1.00
H1       0.18814    0.25300    0.39957   1.00
C5       0.17540    0.25628    0.47761   1.00
H1       0.26701    0.31039    0.52599   1.00
H2       0.15097    0.25350    0.45646   1.00
H2       0.17183    0.23215    0.49897   1.00
N1       0.17237    0.29417    0.49708   1.00
C6       0.17496    0.32940    0.47988   1.00
C6       0.16610    0.30015    0.53540   1.00
C6       0.17067    0.35827    0.50757   1.00
C6       0.16504    0.33966    0.54289   1.00
H3       0.17994    0.33397    0.44901   1.00
H3       0.16295    0.27722    0.55691   1.00
H3       0.17150    0.38941    0.50259   1.00
H3       0.16070    0.35335    0.57097   1.00
C4       0.25005    0.75008    0.47915   1.00
C4       0.24995    0.74992    0.52085   1.00
C3       0.24042    0.78351    0.45708   1.00
C3       0.28506    0.75237    0.54225   1.00
C3       0.26005    0.71604    0.45816   1.00
C3a      0.21446    0.74781    0.54263   1.00
C2       0.25010    0.74850    0.39483   1.00
C2       0.25022    0.75145    0.60517   1.00
C3       0.24044    0.78266    0.41566   1.00
C3       0.28513    0.75314    0.58359   1.00
C3       0.25990    0.71523    0.41680   1.00
C3       0.21516    0.74874    0.58415   1.00
H1       0.23282    0.81034    0.47192   1.00
H1       0.31262    0.75399    0.52685   1.00
H1       0.23283    0.80881    0.39968   1.00
H1       0.31266    0.75514    0.59895   1.00
H1       0.26721    0.68842    0.40179   1.00
H1       0.18814    0.74700    0.60043   1.00
C5       0.17540    0.74372    0.52239   1.00
H1       0.26701    0.68961    0.47401   1.00
H2       0.15097    0.74650    0.54354   1.00
H2       0.17183    0.76785    0.50103   1.00
N1       0.17237    0.70583    0.50292   1.00
C6       0.17496    0.67060    0.52012   1.00
C6       0.16610    0.69985    0.46460   1.00
C6       0.17067    0.64173    0.49243   1.00
C6       0.16504    0.66034    0.45711   1.00
H3       0.17994    0.66603    0.55099   1.00
H3       0.16295    0.72278    0.44309   1.00
H3       0.17150    0.61059    0.49741   1.00
H3       0.16070    0.64665    0.42903   1.00
C4       0.25008    0.97915    0.25005   1.00
C4       0.24992    1.02085    0.24995   1.00
C3       0.28351    0.95708    0.24042   1.00
C3       0.25237    1.04225    0.28506   1.00
C3       0.21604    0.95816    0.26005   1.00
C3a      0.24781    1.04263    0.21446   1.00
C2       0.24850    0.89483    0.25010   1.00
C2       0.25145    1.10517    0.25022   1.00
C3       0.28266    0.91566    0.24044   1.00
C3       0.25314    1.08359    0.28513   1.00
C3       0.21523    0.91680    0.25990   1.00
C3       0.24874    1.08415    0.21516   1.00
H1       0.31034    0.97192    0.23282   1.00
H1       0.25399    1.02685    0.31262   1.00
H1       0.30881    0.89968    0.23283   1.00
H1       0.25514    1.09895    0.31266   1.00
H1       0.18842    0.90179    0.26721   1.00
H1       0.24700    1.10043    0.18814   1.00
C5       0.24372    1.02239    0.17540   1.00
H1       0.18961    0.97401    0.26701   1.00
H2       0.24650    1.04354    0.15097   1.00
H2       0.26785    1.00103    0.17183   1.00
N1       0.20583    1.00292    0.17237   1.00
C6       0.17060    1.02012    0.17496   1.00
C6       0.19985    0.96460    0.16610   1.00
C6       0.14173    0.99243    0.17067   1.00
C6       0.16034    0.95711    0.16504   1.00
H3       0.16603    1.05099    0.17994   1.00
H3       0.22278    0.94309    0.16295   1.00
H3       0.11059    0.99741    0.17150   1.00
H3       0.14665    0.92903    0.16070   1.00
C4       0.02085    0.75005    0.24992   1.00
C4       -0.02085   0.74995    0.25008   1.00
C3       0.04292    0.74042    0.21649   1.00
C3       -0.04225   0.78506    0.24763   1.00
C3       0.04184    0.76005    0.28396   1.00
C3a      -0.04263   0.71446    0.25219   1.00
C2       0.10517    0.75010    0.25150   1.00
C2       -0.10517   0.75022    0.24855   1.00
C3       0.08434    0.74044    0.21734   1.00
C3       -0.08359   0.78513    0.24686   1.00
C3       0.08320    0.75990    0.28477   1.00
C3       -0.08415   0.71516    0.25126   1.00
H1       0.02808    0.73282    0.18966   1.00
H1       -0.02685   0.81262    0.24601   1.00
H1       0.10032    0.73283    0.19119   1.00
H1       -0.09895   0.81266    0.24486   1.00
H1       0.09821    0.76721    0.31158   1.00
H1       -0.10043   0.68814    0.25300   1.00
C5       -0.02239   0.67540    0.25628   1.00
H1       0.02599    0.76701    0.31039   1.00
H2       -0.04354   0.65097    0.25350   1.00
H2       -0.00103   0.67183    0.23215   1.00
N1       -0.00292   0.67237    0.29417   1.00
C6       -0.02012   0.67496    0.32940   1.00
C6       0.03540    0.66610    0.30015   1.00
C6       0.00757    0.67067    0.35827   1.00
C6       0.04289    0.66504    0.33966   1.00
H3       -0.05099   0.67994    0.33397   1.00
H3       0.05691    0.66295    0.27722   1.00
H3       0.00259    0.67150    0.38941   1.00
H3       0.07097    0.66070    0.35335   1.00
C4       0.47915    0.75005    0.25008   1.00
C4       0.52085    0.74995    0.24992   1.00
C3       0.45708    0.74042    0.28351   1.00
C3       0.54225    0.78506    0.25237   1.00
C3       0.45816    0.76005    0.21604   1.00
C3a      0.54263    0.71446    0.24781   1.00
C2       0.39483    0.75010    0.24850   1.00
C2       0.60517    0.75022    0.25145   1.00
C3       0.41566    0.74044    0.28266   1.00
C3       0.58359    0.78513    0.25314   1.00
C3       0.41680    0.75990    0.21523   1.00
C3       0.58415    0.71516    0.24874   1.00
H1       0.47192    0.73282    0.31034   1.00
H1       0.52685    0.81262    0.25399   1.00
H1       0.39968    0.73283    0.30881   1.00
H1       0.59895    0.81266    0.25514   1.00
H1       0.40179    0.76721    0.18842   1.00
H1       0.60043    0.68814    0.24700   1.00
C5       0.52239    0.67540    0.24372   1.00
H1       0.47401    0.76701    0.18961   1.00
H2       0.54354    0.65097    0.24650   1.00
H2       0.50103    0.67183    0.26785   1.00
N1       0.50292    0.67237    0.20583   1.00
C6       0.52012    0.67496    0.17060   1.00
C6       0.46460    0.66610    0.19985   1.00
C6       0.49243    0.67067    0.14173   1.00
C6       0.45711    0.66504    0.16034   1.00
H3       0.55099    0.67994    0.16603   1.00
H3       0.44309    0.66295    0.22278   1.00
H3       0.49741    0.67150    0.11059   1.00
H3       0.42903    0.66070    0.14665   1.00
C4       0.24992    0.52085    0.25005   1.00
C4       0.25008    0.47915    0.24995   1.00
C3       0.21649    0.54292    0.24042   1.00
C3       0.24763    0.45775    0.28506   1.00
C3       0.28396    0.54184    0.26005   1.00
C3a      0.25219    0.45737    0.21446   1.00
C2       0.25150    0.60517    0.25010   1.00
C2       0.24855    0.39483    0.25022   1.00
C3       0.21734    0.58434    0.24044   1.00
C3       0.24686    0.41641    0.28513   1.00
C3       0.28477    0.58320    0.25990   1.00
C3       0.25126    0.41585    0.21516   1.00
H1       0.18966    0.52808    0.23282   1.00
H1       0.24601    0.47315    0.31262   1.00
H1       0.19119    0.60032    0.23283   1.00
H1       0.24486    0.40105    0.31266   1.00
H1       0.31158    0.59821    0.26721   1.00
H1       0.25300    0.39957    0.18814   1.00
C5       0.25628    0.47761    0.17540   1.00
H1       0.31039    0.52599    0.26701   1.00
H2       0.25350    0.45646    0.15097   1.00
H2       0.23215    0.49897    0.17183   1.00
N1       0.29417    0.49708    0.17237   1.00
C6       0.32940    0.47988    0.17496   1.00
C6       0.30015    0.53540    0.16610   1.00
C6       0.35827    0.50757    0.17067   1.00
C6       0.33966    0.54289    0.16504   1.00
H3       0.33397    0.44901    0.17994   1.00
H3       0.27722    0.55691    0.16295   1.00
H3       0.38941    0.50259    0.17150   1.00
H3       0.35335    0.57097    0.16070   1.00
C4       0.25005    0.74992    0.02085   1.00
C4       0.24995    0.75008    -0.02085   1.00
C3       0.24042    0.71649    0.04292   1.00
C3       0.28506    0.74763    -0.04225   1.00
C3       0.26005    0.78396    0.04184   1.00
C3a      0.21446    0.75219    -0.04263   1.00
C2       0.25010    0.75150    0.10517   1.00
C2       0.25022    0.74855    -0.10517   1.00
C3       0.24044    0.71734    0.08434   1.00
C3       0.28513    0.74686    -0.08359   1.00
C3       0.25990    0.78477    0.08320   1.00
C3       0.21516    0.75126    -0.08415   1.00
H1       0.23282    0.68966    0.02808   1.00
H1       0.31262    0.74601    -0.02685   1.00
H1       0.23283    0.69119    0.10032   1.00
H1       0.31266    0.74486    -0.09895   1.00
H1       0.26721    0.81158    0.09821   1.00
H1       0.18814    0.75300    -0.10043   1.00
C5       0.17540    0.75628    -0.02239   1.00
H1       0.26701    0.81039    0.02599   1.00
H2       0.15097    0.75350    -0.04354   1.00
H2       0.17183    0.73215    -0.00103   1.00
N1       0.17237    0.79417    -0.00292   1.00
C6       0.17496    0.82940    -0.02012   1.00
C6       0.16610    0.80015    0.03540   1.00
C6       0.17067    0.85827    0.00757   1.00
C6       0.16504    0.83966    0.04289   1.00
H3       0.17994    0.83397    -0.05099   1.00
H3       0.16295    0.77722    0.05691   1.00
H3       0.17150    0.88941    0.00259   1.00
H3       0.16070    0.85335    0.07097   1.00
C4       0.75005    0.25008    0.47915   1.00
C4       0.74995    0.24992    0.52085   1.00
C3       0.74042    0.28351    0.45708   1.00
C3       0.78506    0.25237    0.54225   1.00
C3       0.76005    0.21604    0.45816   1.00
C3a      0.71446    0.24781    0.54263   1.00
C2       0.75010    0.24850    0.39483   1.00
C2       0.75022    0.25145    0.60517   1.00
C3       0.74044    0.28266    0.41566   1.00
C3       0.78513    0.25314    0.58359   1.00
C3       0.75990    0.21523    0.41680   1.00
C3       0.71516    0.24874    0.58415   1.00
H1       0.73282    0.31034    0.47192   1.00
H1       0.81262    0.25399    0.52685   1.00
H1       0.73283    0.30881    0.39968   1.00
H1       0.81266    0.25514    0.59895   1.00
H1       0.76721    0.18842    0.40179   1.00
H1       0.68814    0.24700    0.60043   1.00
C5       0.67540    0.24372    0.52239   1.00
H1       0.76701    0.18961    0.47401   1.00
H2       0.65097    0.24650    0.54354   1.00
H2       0.67183    0.26785    0.50103   1.00
N1       0.67237    0.20583    0.50292   1.00
C6       0.67496    0.17060    0.52012   1.00
C6       0.66610    0.19985    0.46460   1.00
C6       0.67067    0.14173    0.49243   1.00
C6       0.66504    0.16034    0.45711   1.00
H3       0.67994    0.16603    0.55099   1.00
H3       0.66295    0.22278    0.44309   1.00
H3       0.67150    0.11059    0.49741   1.00
H3       0.66070    0.14665    0.42903   1.00
C4       0.75008    0.47915    0.25005   1.00
C4       0.74992    0.52085    0.24995   1.00
C3       0.78351    0.45708    0.24042   1.00
C3       0.75237    0.54225    0.28506   1.00
C3       0.71604    0.45816    0.26005   1.00
C3a      0.74781    0.54263    0.21446   1.00
C2       0.74850    0.39483    0.25010   1.00
C2       0.75145    0.60517    0.25022   1.00
C3       0.78266    0.41566    0.24044   1.00
C3       0.75314    0.58359    0.28513   1.00
C3       0.71523    0.41680    0.25990   1.00
C3       0.74874    0.58415    0.21516   1.00
H1       0.81034    0.47192    0.23282   1.00
H1       0.75399    0.52685    0.31262   1.00
H1       0.80881    0.39968    0.23283   1.00
H1       0.75514    0.59895    0.31266   1.00
H1       0.68842    0.40179    0.26721   1.00
H1       0.74700    0.60043    0.18814   1.00
C5       0.74372    0.52239    0.17540   1.00
H1       0.68961    0.47401    0.26701   1.00
H2       0.74650    0.54354    0.15097   1.00
H2       0.76785    0.50103    0.17183   1.00
N1       0.70583    0.50292    0.17237   1.00
C6       0.67060    0.52012    0.17496   1.00
C6       0.69985    0.46460    0.16610   1.00
C6       0.64173    0.49243    0.17067   1.00
C6       0.66034    0.45711    0.16504   1.00
H3       0.66603    0.55099    0.17994   1.00
H3       0.72278    0.44309    0.16295   1.00
H3       0.61059    0.49741    0.17150   1.00
H3       0.64665    0.42903    0.16070   1.00
C4       0.52085    0.25005    0.24992   1.00
C4       0.47915    0.24995    0.25008   1.00
C3       0.54292    0.24042    0.21649   1.00
C3       0.45775    0.28506    0.24763   1.00
C3       0.54184    0.26005    0.28396   1.00
C3a      0.45737    0.21446    0.25219   1.00
C2       0.60517    0.25010    0.25150   1.00
C2       0.39483    0.25022    0.24855   1.00
C3       0.58434    0.24044    0.21734   1.00
C3       0.41641    0.28513    0.24686   1.00
C3       0.58320    0.25990    0.28477   1.00
C3       0.41585    0.21516    0.25126   1.00
H1       0.52808    0.23282    0.18966   1.00
H1       0.47315    0.31262    0.24601   1.00
H1       0.60032    0.23283    0.19119   1.00
H1       0.40105    0.31266    0.24486   1.00
H1       0.59821    0.26721    0.31158   1.00
H1       0.39957    0.18814    0.25300   1.00
C5       0.47761    0.17540    0.25628   1.00
H1       0.52599    0.26701    0.31039   1.00
H2       0.45646    0.15097    0.25350   1.00
H2       0.49897    0.17183    0.23215   1.00
N1       0.49708    0.17237    0.29417   1.00
C6       0.47988    0.17496    0.32940   1.00
C6       0.53540    0.16610    0.30015   1.00
C6       0.50757    0.17067    0.35827   1.00
C6       0.54289    0.16504    0.33966   1.00
H3       0.44901    0.17994    0.33397   1.00
H3       0.55691    0.16295    0.27722   1.00
H3       0.50259    0.17150    0.38941   1.00
H3       0.57097    0.16070    0.35335   1.00
C4       0.97915    0.25005    0.25008   1.00
C4       1.02085    0.24995    0.24992   1.00
C3       0.95708    0.24042    0.28351   1.00
C3       1.04225    0.28506    0.25237   1.00
C3       0.95816    0.26005    0.21604   1.00
C3a      1.04263    0.21446    0.24781   1.00
C2       0.89483    0.25010    0.24850   1.00
C2       1.10517    0.25022    0.25145   1.00
C3       0.91566    0.24044    0.28266   1.00
C3       1.08359    0.28513    0.25314   1.00
C3       0.91680    0.25990    0.21523   1.00
C3       1.08415    0.21516    0.24874   1.00
H1       0.97192    0.23282    0.31034   1.00
H1       1.02685    0.31262    0.25399   1.00
H1       0.89968    0.23283    0.30881   1.00
H1       1.09895    0.31266    0.25514   1.00
H1       0.90179    0.26721    0.18842   1.00
H1       1.10043    0.18814    0.24700   1.00
C5       1.02239    0.17540    0.24372   1.00
H1       0.97401    0.26701    0.18961   1.00
H2       1.04354    0.15097    0.24650   1.00
H2       1.00103    0.17183    0.26785   1.00
N1       1.00292    0.17237    0.20583   1.00
C6       1.02012    0.17496    0.17060   1.00
C6       0.96460    0.16610    0.19985   1.00
C6       0.99243    0.17067    0.14173   1.00
C6       0.95711    0.16504    0.16034   1.00
H3       1.05099    0.17994    0.16603   1.00
H3       0.94309    0.16295    0.22278   1.00
H3       0.99741    0.17150    0.11059   1.00
H3       0.92903    0.16070    0.14665   1.00
C4       0.74992    0.02085    0.25005   1.00
C4       0.75008    -0.02085   0.24995   1.00
C3       0.71649    0.04292    0.24042   1.00
C3       0.74763    -0.04225   0.28506   1.00
C3       0.78396    0.04184    0.26005   1.00
C3a      0.75219    -0.04263   0.21446   1.00
C2       0.75150    0.10517    0.25010   1.00
C2       0.74855    -0.10517   0.25022   1.00
C3       0.71734    0.08434    0.24044   1.00
C3       0.74686    -0.08359   0.28513   1.00
C3       0.78477    0.08320    0.25990   1.00
C3       0.75126    -0.08415   0.21516   1.00
H1       0.68966    0.02808    0.23282   1.00
H1       0.74601    -0.02685   0.31262   1.00
H1       0.69119    0.10032    0.23283   1.00
H1       0.74486    -0.09895   0.31266   1.00
H1       0.81158    0.09821    0.26721   1.00
H1       0.75300    -0.10043   0.18814   1.00
C5       0.75628    -0.02239   0.17540   1.00
H1       0.81039    0.02599    0.26701   1.00
H2       0.75350    -0.04354   0.15097   1.00
H2       0.73215    -0.00103   0.17183   1.00
N1       0.79417    -0.00292   0.17237   1.00
C6       0.82940    -0.02012   0.17496   1.00
C6       0.80015    0.03540    0.16610   1.00
C6       0.85827    0.00757    0.17067   1.00
C6       0.83966    0.04289    0.16504   1.00
H3       0.83397    -0.05099   0.17994   1.00
H3       0.77722    0.05691    0.16295   1.00
H3       0.88941    0.00259    0.17150   1.00
H3       0.85335    0.07097    0.16070   1.00
C4       0.75005    0.24992    0.02085   1.00
C4       0.74995    0.25008    -0.02085   1.00
C3       0.74042    0.21649    0.04292   1.00
C3       0.78506    0.24763    -0.04225   1.00
C3       0.76005    0.28396    0.04184   1.00
C3a      0.71446    0.25219    -0.04263   1.00
C2       0.75010    0.25150    0.10517   1.00
C2       0.75022    0.24855    -0.10517   1.00
C3       0.74044    0.21734    0.08434   1.00
C3       0.78513    0.24686    -0.08359   1.00
C3       0.75990    0.28477    0.08320   1.00
C3       0.71516    0.25126    -0.08415   1.00
H1       0.73282    0.18966    0.02808   1.00
H1       0.81262    0.24601    -0.02685   1.00
H1       0.73283    0.19119    0.10032   1.00
H1       0.81266    0.24486    -0.09895   1.00
H1       0.76721    0.31158    0.09821   1.00
H1       0.68814    0.25300    -0.10043   1.00
C5       0.67540    0.25628    -0.02239   1.00
H1       0.76701    0.31039    0.02599   1.00
H2       0.65097    0.25350    -0.04354   1.00
H2       0.67183    0.23215    -0.00103   1.00
N1       0.67237    0.29417    -0.00292   1.00
C6       0.67496    0.32940    -0.02012   1.00
C6       0.66610    0.30015    0.03540   1.00
C6       0.67067    0.35827    0.00757   1.00
C6       0.66504    0.33966    0.04289   1.00
H3       0.67994    0.33397    -0.05099   1.00
H3       0.66295    0.27722    0.05691   1.00
H3       0.67150    0.38941    0.00259   1.00
H3       0.66070    0.35335    0.07097   1.00
C4       1.00005    1.00008    1.22915   1.00
C4       0.99995    0.99992    1.27085   1.00
C3       0.99042    1.03351    1.20708   1.00
C3       1.03506    1.00237    1.29225   1.00
C3       1.01005    0.96604    1.20816   1.00
C3a      0.96446    0.99781    1.29263   1.00
C2       1.00010    0.99850    1.14483   1.00
C2       1.00022    1.00145    1.35517   1.00
C3       0.99044    1.03266    1.16566   1.00
C3       1.03513    1.00314    1.33359   1.00
C3       1.00990    0.96523    1.16680   1.00
C3       0.96516    0.99874    1.33415   1.00
H1       0.98282    1.06034    1.22192   1.00
H1       1.06262    1.00399    1.27685   1.00
H1       0.98283    1.05881    1.14968   1.00
H1       1.06266    1.00514    1.34895   1.00
H1       1.01721    0.93842    1.15179   1.00
H1       0.93814    0.99700    1.35043   1.00
C5       0.92540    0.99372    1.27239   1.00
H1       1.01701    0.93961    1.22401   1.00
H2       0.90097    0.99650    1.29354   1.00
H2       0.92183    1.01785    1.25103   1.00
N1       0.92237    0.95583    1.25292   1.00
C6       0.92496    0.92060    1.27012   1.00
C6       0.91610    0.94985    1.21460   1.00
C6       0.92067    0.89173    1.24243   1.00
C6       0.91504    0.91034    1.20711   1.00
H3       0.92994    0.91603    1.30099   1.00
H3       0.91295    0.97278    1.19309   1.00
H3       0.92150    0.86059    1.24741   1.00
H3       0.91070    0.89665    1.17903   1.00
C4       1.00008    1.22915    1.00005   1.00
C4       0.99992    1.27085    0.99995   1.00
C3       1.03351    1.20708    0.99042   1.00
C3       1.00237    1.29225    1.03506   1.00
C3       0.96604    1.20816    1.01005   1.00
C3a      0.99781    1.29263    0.96446   1.00
C2       0.99850    1.14483    1.00010   1.00
C2       1.00145    1.35517    1.00022   1.00
C3       1.03266    1.16566    0.99044   1.00
C3       1.00314    1.33359    1.03513   1.00
C3       0.96523    1.16680    1.00990   1.00
C3       0.99874    1.33415    0.96516   1.00
H1       1.06034    1.22192    0.98282   1.00
H1       1.00399    1.27685    1.06262   1.00
H1       1.05881    1.14968    0.98283   1.00
H1       1.00514    1.34895    1.06266   1.00
H1       0.93842    1.15179    1.01721   1.00
H1       0.99700    1.35043    0.93814   1.00
C5       0.99372    1.27239    0.92540   1.00
H1       0.93961    1.22401    1.01701   1.00
H2       0.99650    1.29354    0.90097   1.00
H2       1.01785    1.25103    0.92183   1.00
N1       0.95583    1.25292    0.92237   1.00
C6       0.92060    1.27012    0.92496   1.00
C6       0.94985    1.21460    0.91610   1.00
C6       0.89173    1.24243    0.92067   1.00
C6       0.91034    1.20711    0.91504   1.00
H3       0.91603    1.30099    0.92994   1.00
H3       0.97278    1.19309    0.91295   1.00
H3       0.86059    1.24741    0.92150   1.00
H3       0.89665    1.17903    0.91070   1.00
C4       0.77085    1.00005    0.99992   1.00
C4       0.72915    0.99995    1.00008   1.00
C3       0.79292    0.99042    0.96649   1.00
C3       0.70775    1.03506    0.99763   1.00
C3       0.79184    1.01005    1.03396   1.00
C3a      0.70737    0.96446    1.00219   1.00
C2       0.85517    1.00010    1.00150   1.00
C2       0.64483    1.00022    0.99855   1.00
C3       0.83434    0.99044    0.96734   1.00
C3       0.66641    1.03513    0.99686   1.00
C3       0.83320    1.00990    1.03477   1.00
C3       0.66585    0.96516    1.00126   1.00
H1       0.77808    0.98282    0.93966   1.00
H1       0.72315    1.06262    0.99601   1.00
H1       0.85032    0.98283    0.94119   1.00
H1       0.65105    1.06266    0.99486   1.00
H1       0.84821    1.01721    1.06158   1.00
H1       0.64957    0.93814    1.00300   1.00
C5       0.72761    0.92540    1.00628   1.00
H1       0.77599    1.01701    1.06039   1.00
H2       0.70646    0.90097    1.00350   1.00
H2       0.74897    0.92183    0.98215   1.00
N1       0.74708    0.92237    1.04417   1.00
C6       0.72988    0.92496    1.07940   1.00
C6       0.78540    0.91610    1.05015   1.00
C6       0.75757    0.92067    1.10827   1.00
C6       0.79289    0.91504    1.08966   1.00
H3       0.69901    0.92994    1.08397   1.00
H3       0.80691    0.91295    1.02722   1.00
H3       0.75259    0.92150    1.13941   1.00
H3       0.82097    0.91070    1.10335   1.00
C4       1.22915    1.00005    1.00008   1.00
C4       1.27085    0.99995    0.99992   1.00
C3       1.20708    0.99042    1.03351   1.00
C3       1.29225    1.03506    1.00237   1.00
C3       1.20816    1.01005    0.96604   1.00
C3a      1.29263    0.96446    0.99781   1.00
C2       1.14483    1.00010    0.99850   1.00
C2       1.35517    1.00022    1.00145   1.00
C3       1.16566    0.99044    1.03266   1.00
C3       1.33359    1.03513    1.00314   1.00
C3       1.16680    1.00990    0.96523   1.00
C3       1.33415    0.96516    0.99874   1.00
H1       1.22192    0.98282    1.06034   1.00
H1       1.27685    1.06262    1.00399   1.00
H1       1.14968    0.98283    1.05881   1.00
H1       1.34895    1.06266    1.00514   1.00
H1       1.15179    1.01721    0.93842   1.00
H1       1.35043    0.93814    0.99700   1.00
C5       1.27239    0.92540    0.99372   1.00
H1       1.22401    1.01701    0.93961   1.00
H2       1.29354    0.90097    0.99650   1.00
H2       1.25103    0.92183    1.01785   1.00
N1       1.25292    0.92237    0.95583   1.00
C6       1.27012    0.92496    0.92060   1.00
C6       1.21460    0.91610    0.94985   1.00
C6       1.24243    0.92067    0.89173   1.00
C6       1.20711    0.91504    0.91034   1.00
H3       1.30099    0.92994    0.91603   1.00
H3       1.19309    0.91295    0.97278   1.00
H3       1.24741    0.92150    0.86059   1.00
H3       1.17903    0.91070    0.89665   1.00
C4       0.99992    0.77085    1.00005   1.00
C4       1.00008    0.72915    0.99995   1.00
C3       0.96649    0.79292    0.99042   1.00
C3       0.99763    0.70775    1.03506   1.00
C3       1.03396    0.79184    1.01005   1.00
C3a      1.00219    0.70737    0.96446   1.00
C2       1.00150    0.85517    1.00010   1.00
C2       0.99855    0.64483    1.00022   1.00
C3       0.96734    0.83434    0.99044   1.00
C3       0.99686    0.66641    1.03513   1.00
C3       1.03477    0.83320    1.00990   1.00
C3       1.00126    0.66585    0.96516   1.00
H1       0.93966    0.77808    0.98282   1.00
H1       0.99601    0.72315    1.06262   1.00
H1       0.94119    0.85032    0.98283   1.00
H1       0.99486    0.65105    1.06266   1.00
H1       1.06158    0.84821    1.01721   1.00
H1       1.00300    0.64957    0.93814   1.00
C5       1.00628    0.72761    0.92540   1.00
H1       1.06039    0.77599    1.01701   1.00
H2       1.00350    0.70646    0.90097   1.00
H2       0.98215    0.74897    0.92183   1.00
N1       1.04417    0.74708    0.92237   1.00
C6       1.07940    0.72988    0.92496   1.00
C6       1.05015    0.78540    0.91610   1.00
C6       1.10827    0.75757    0.92067   1.00
C6       1.08966    0.79289    0.91504   1.00
H3       1.08397    0.69901    0.92994   1.00
H3       1.02722    0.80691    0.91295   1.00
H3       1.13941    0.75259    0.92150   1.00
H3       1.10335    0.82097    0.91070   1.00
C4       1.00005    0.99992    0.77085   1.00
C4       0.99995    1.00008    0.72915   1.00
C3       0.99042    0.96649    0.79292   1.00
C3       1.03506    0.99763    0.70775   1.00
C3       1.01005    1.03396    0.79184   1.00
C3a      0.96446    1.00219    0.70737   1.00
C2       1.00010    1.00150    0.85517   1.00
C2       1.00022    0.99855    0.64483   1.00
C3       0.99044    0.96734    0.83434   1.00
C3       1.03513    0.99686    0.66641   1.00
C3       1.00990    1.03477    0.83320   1.00
C3       0.96516    1.00126    0.66585   1.00
H1       0.98282    0.93966    0.77808   1.00
H1       1.06262    0.99601    0.72315   1.00
H1       0.98283    0.94119    0.85032   1.00
H1       1.06266    0.99486    0.65105   1.00
H1       1.01721    1.06158    0.84821   1.00
H1       0.93814    1.00300    0.64957   1.00
C5       0.92540    1.00628    0.72761   1.00
H1       1.01701    1.06039    0.77599   1.00
H2       0.90097    1.00350    0.70646   1.00
H2       0.92183    0.98215    0.74897   1.00
N1       0.92237    1.04417    0.74708   1.00
C6       0.92496    1.07940    0.72988   1.00
C6       0.91610    1.05015    0.78540   1.00
C6       0.92067    1.10827    0.75757   1.00
C6       0.91504    1.08966    0.79289   1.00
H3       0.92994    1.08397    0.69901   1.00
H3       0.91295    1.02722    0.80691   1.00
H3       0.92150    1.13941    0.75259   1.00
H3       0.91070    1.10335    0.82097   1.00
C4       0.50005    0.50008    1.22915   1.00
C4       0.49995    0.49992    1.27085   1.00
C3       0.49042    0.53351    1.20708   1.00
C3       0.53506    0.50237    1.29225   1.00
C3       0.51005    0.46604    1.20816   1.00
C3a      0.46446    0.49781    1.29263   1.00
C2       0.50010    0.49850    1.14483   1.00
C2       0.50022    0.50145    1.35517   1.00
C3       0.49044    0.53266    1.16566   1.00
C3       0.53513    0.50314    1.33359   1.00
C3       0.50990    0.46523    1.16680   1.00
C3       0.46516    0.49874    1.33415   1.00
H1       0.48282    0.56034    1.22192   1.00
H1       0.56262    0.50399    1.27685   1.00
H1       0.48283    0.55881    1.14968   1.00
H1       0.56266    0.50514    1.34895   1.00
H1       0.51721    0.43842    1.15179   1.00
H1       0.43814    0.49700    1.35043   1.00
C5       0.42540    0.49372    1.27239   1.00
H1       0.51701    0.43961    1.22401   1.00
H2       0.40097    0.49650    1.29354   1.00
H2       0.42183    0.51785    1.25103   1.00
N1       0.42237    0.45583    1.25292   1.00
C6       0.42496    0.42060    1.27012   1.00
C6       0.41610    0.44985    1.21460   1.00
C6       0.42067    0.39173    1.24243   1.00
C6       0.41504    0.41034    1.20711   1.00
H3       0.42994    0.41603    1.30099   1.00
H3       0.41295    0.47278    1.19309   1.00
H3       0.42150    0.36059    1.24741   1.00
H3       0.41070    0.39665    1.17903   1.00
C4       0.50008    0.72915    1.00005   1.00
C4       0.49992    0.77085    0.99995   1.00
C3       0.53351    0.70708    0.99042   1.00
C3       0.50237    0.79225    1.03506   1.00
C3       0.46604    0.70816    1.01005   1.00
C3a      0.49781    0.79263    0.96446   1.00
C2       0.49850    0.64483    1.00010   1.00
C2       0.50145    0.85517    1.00022   1.00
C3       0.53266    0.66566    0.99044   1.00
C3       0.50314    0.83359    1.03513   1.00
C3       0.46523    0.66680    1.00990   1.00
C3       0.49874    0.83415    0.96516   1.00
H1       0.56034    0.72192    0.98282   1.00
H1       0.50399    0.77685    1.06262   1.00
H1       0.55881    0.64968    0.98283   1.00
H1       0.50514    0.84895    1.06266   1.00
H1       0.43842    0.65179    1.01721   1.00
H1       0.49700    0.85043    0.93814   1.00
C5       0.49372    0.77239    0.92540   1.00
H1       0.43961    0.72401    1.01701   1.00
H2       0.49650    0.79354    0.90097   1.00
H2       0.51785    0.75103    0.92183   1.00
N1       0.45583    0.75292    0.92237   1.00
C6       0.42060    0.77012    0.92496   1.00
C6       0.44985    0.71460    0.91610   1.00
C6       0.39173    0.74243    0.92067   1.00
C6       0.41034    0.70711    0.91504   1.00
H3       0.41603    0.80099    0.92994   1.00
H3       0.47278    0.69309    0.91295   1.00
H3       0.36059    0.74741    0.92150   1.00
H3       0.39665    0.67903    0.91070   1.00
C4       0.27085    0.50005    0.99992   1.00
C4       0.22915    0.49995    1.00008   1.00
C3       0.29292    0.49042    0.96649   1.00
C3       0.20775    0.53506    0.99763   1.00
C3       0.29184    0.51005    1.03396   1.00
C3a      0.20737    0.46446    1.00219   1.00
C2       0.35517    0.50010    1.00150   1.00
C2       0.14483    0.50022    0.99855   1.00
C3       0.33434    0.49044    0.96734   1.00
C3       0.16641    0.53513    0.99686   1.00
C3       0.33320    0.50990    1.03477   1.00
C3       0.16585    0.46516    1.00126   1.00
H1       0.27808    0.48282    0.93966   1.00
H1       0.22315    0.56262    0.99601   1.00
H1       0.35032    0.48283    0.94119   1.00
H1       0.15105    0.56266    0.99486   1.00
H1       0.34821    0.51721    1.06158   1.00
H1       0.14957    0.43814    1.00300   1.00
C5       0.22761    0.42540    1.00628   1.00
H1       0.27599    0.51701    1.06039   1.00
H2       0.20646    0.40097    1.00350   1.00
H2       0.24897    0.42183    0.98215   1.00
N1       0.24708    0.42237    1.04417   1.00
C6       0.22988    0.42496    1.07940   1.00
C6       0.28540    0.41610    1.05015   1.00
C6       0.25757    0.42067    1.10827   1.00
C6       0.29289    0.41504    1.08966   1.00
H3       0.19901    0.42994    1.08397   1.00
H3       0.30691    0.41295    1.02722   1.00
H3       0.25259    0.42150    1.13941   1.00
H3       0.32097    0.41070    1.10335   1.00
C4       0.72915    0.50005    1.00008   1.00
C4       0.77085    0.49995    0.99992   1.00
C3       0.70708    0.49042    1.03351   1.00
C3       0.79225    0.53506    1.00237   1.00
C3       0.70816    0.51005    0.96604   1.00
C3a      0.79263    0.46446    0.99781   1.00
C2       0.64483    0.50010    0.99850   1.00
C2       0.85517    0.50022    1.00145   1.00
C3       0.66566    0.49044    1.03266   1.00
C3       0.83359    0.53513    1.00314   1.00
C3       0.66680    0.50990    0.96523   1.00
C3       0.83415    0.46516    0.99874   1.00
H1       0.72192    0.48282    1.06034   1.00
H1       0.77685    0.56262    1.00399   1.00
H1       0.64968    0.48283    1.05881   1.00
H1       0.84895    0.56266    1.00514   1.00
H1       0.65179    0.51721    0.93842   1.00
H1       0.85043    0.43814    0.99700   1.00
C5       0.77239    0.42540    0.99372   1.00
H1       0.72401    0.51701    0.93961   1.00
H2       0.79354    0.40097    0.99650   1.00
H2       0.75103    0.42183    1.01785   1.00
N1       0.75292    0.42237    0.95583   1.00
C6       0.77012    0.42496    0.92060   1.00
C6       0.71460    0.41610    0.94985   1.00
C6       0.74243    0.42067    0.89173   1.00
C6       0.70711    0.41504    0.91034   1.00
H3       0.80099    0.42994    0.91603   1.00
H3       0.69309    0.41295    0.97278   1.00
H3       0.74741    0.42150    0.86059   1.00
H3       0.67903    0.41070    0.89665   1.00
C4       0.49992    0.27085    1.00005   1.00
C4       0.50008    0.22915    0.99995   1.00
C3       0.46649    0.29292    0.99042   1.00
C3       0.49763    0.20775    1.03506   1.00
C3       0.53396    0.29184    1.01005   1.00
C3a      0.50219    0.20737    0.96446   1.00
C2       0.50150    0.35517    1.00010   1.00
C2       0.49855    0.14483    1.00022   1.00
C3       0.46734    0.33434    0.99044   1.00
C3       0.49686    0.16641    1.03513   1.00
C3       0.53477    0.33320    1.00990   1.00
C3       0.50126    0.16585    0.96516   1.00
H1       0.43966    0.27808    0.98282   1.00
H1       0.49601    0.22315    1.06262   1.00
H1       0.44119    0.35032    0.98283   1.00
H1       0.49486    0.15105    1.06266   1.00
H1       0.56158    0.34821    1.01721   1.00
H1       0.50300    0.14957    0.93814   1.00
C5       0.50628    0.22761    0.92540   1.00
H1       0.56039    0.27599    1.01701   1.00
H2       0.50350    0.20646    0.90097   1.00
H2       0.48215    0.24897    0.92183   1.00
N1       0.54417    0.24708    0.92237   1.00
C6       0.57940    0.22988    0.92496   1.00
C6       0.55015    0.28540    0.91610   1.00
C6       0.60827    0.25757    0.92067   1.00
C6       0.58966    0.29289    0.91504   1.00
H3       0.58397    0.19901    0.92994   1.00
H3       0.52722    0.30691    0.91295   1.00
H3       0.63941    0.25259    0.92150   1.00
H3       0.60335    0.32097    0.91070   1.00
C4       0.50005    0.49992    0.77085   1.00
C4       0.49995    0.50008    0.72915   1.00
C3       0.49042    0.46649    0.79292   1.00
C3       0.53506    0.49763    0.70775   1.00
C3       0.51005    0.53396    0.79184   1.00
C3a      0.46446    0.50219    0.70737   1.00
C2       0.50010    0.50150    0.85517   1.00
C2       0.50022    0.49855    0.64483   1.00
C3       0.49044    0.46734    0.83434   1.00
C3       0.53513    0.49686    0.66641   1.00
C3       0.50990    0.53477    0.83320   1.00
C3       0.46516    0.50126    0.66585   1.00
H1       0.48282    0.43966    0.77808   1.00
H1       0.56262    0.49601    0.72315   1.00
H1       0.48283    0.44119    0.85032   1.00
H1       0.56266    0.49486    0.65105   1.00
H1       0.51721    0.56158    0.84821   1.00
H1       0.43814    0.50300    0.64957   1.00
C5       0.42540    0.50628    0.72761   1.00
H1       0.51701    0.56039    0.77599   1.00
H2       0.40097    0.50350    0.70646   1.00
H2       0.42183    0.48215    0.74897   1.00
N1       0.42237    0.54417    0.74708   1.00
C6       0.42496    0.57940    0.72988   1.00
C6       0.41610    0.55015    0.78540   1.00
C6       0.42067    0.60827    0.75757   1.00
C6       0.41504    0.58966    0.79289   1.00
H3       0.42994    0.58397    0.69901   1.00
H3       0.41295    0.52722    0.80691   1.00
H3       0.42150    0.63941    0.75259   1.00
H3       0.41070    0.60335    0.82097   1.00
C4       0.50005    1.00008    0.72915   1.00
C4       0.49995    0.99992    0.77085   1.00
C3       0.49042    1.03351    0.70708   1.00
C3       0.53506    1.00237    0.79225   1.00
C3       0.51005    0.96604    0.70816   1.00
C3a      0.46446    0.99781    0.79263   1.00
C2       0.50010    0.99850    0.64483   1.00
C2       0.50022    1.00145    0.85517   1.00
C3       0.49044    1.03266    0.66566   1.00
C3       0.53513    1.00314    0.83359   1.00
C3       0.50990    0.96523    0.66680   1.00
C3       0.46516    0.99874    0.83415   1.00
H1       0.48282    1.06034    0.72192   1.00
H1       0.56262    1.00399    0.77685   1.00
H1       0.48283    1.05881    0.64968   1.00
H1       0.56266    1.00514    0.84895   1.00
H1       0.51721    0.93842    0.65179   1.00
H1       0.43814    0.99700    0.85043   1.00
C5       0.42540    0.99372    0.77239   1.00
H1       0.51701    0.93961    0.72401   1.00
H2       0.40097    0.99650    0.79354   1.00
H2       0.42183    1.01785    0.75103   1.00
N1       0.42237    0.95583    0.75292   1.00
C6       0.42496    0.92060    0.77012   1.00
C6       0.41610    0.94985    0.71460   1.00
C6       0.42067    0.89173    0.74243   1.00
C6       0.41504    0.91034    0.70711   1.00
H3       0.42994    0.91603    0.80099   1.00
H3       0.41295    0.97278    0.69309   1.00
H3       0.42150    0.86059    0.74741   1.00
H3       0.41070    0.89665    0.67903   1.00
C4       0.50008    1.22915    0.50005   1.00
C4       0.49992    1.27085    0.49995   1.00
C3       0.53351    1.20708    0.49042   1.00
C3       0.50237    1.29225    0.53506   1.00
C3       0.46604    1.20816    0.51005   1.00
C3a      0.49781    1.29263    0.46446   1.00
C2       0.49850    1.14483    0.50010   1.00
C2       0.50145    1.35517    0.50022   1.00
C3       0.53266    1.16566    0.49044   1.00
C3       0.50314    1.33359    0.53513   1.00
C3       0.46523    1.16680    0.50990   1.00
C3       0.49874    1.33415    0.46516   1.00
H1       0.56034    1.22192    0.48282   1.00
H1       0.50399    1.27685    0.56262   1.00
H1       0.55881    1.14968    0.48283   1.00
H1       0.50514    1.34895    0.56266   1.00
H1       0.43842    1.15179    0.51721   1.00
H1       0.49700    1.35043    0.43814   1.00
C5       0.49372    1.27239    0.42540   1.00
H1       0.43961    1.22401    0.51701   1.00
H2       0.49650    1.29354    0.40097   1.00
H2       0.51785    1.25103    0.42183   1.00
N1       0.45583    1.25292    0.42237   1.00
C6       0.42060    1.27012    0.42496   1.00
C6       0.44985    1.21460    0.41610   1.00
C6       0.39173    1.24243    0.42067   1.00
C6       0.41034    1.20711    0.41504   1.00
H3       0.41603    1.30099    0.42994   1.00
H3       0.47278    1.19309    0.41295   1.00
H3       0.36059    1.24741    0.42150   1.00
H3       0.39665    1.17903    0.41070   1.00
C4       0.27085    1.00005    0.49992   1.00
C4       0.22915    0.99995    0.50008   1.00
C3       0.29292    0.99042    0.46649   1.00
C3       0.20775    1.03506    0.49763   1.00
C3       0.29184    1.01005    0.53396   1.00
C3a      0.20737    0.96446    0.50219   1.00
C2       0.35517    1.00010    0.50150   1.00
C2       0.14483    1.00022    0.49855   1.00
C3       0.33434    0.99044    0.46734   1.00
C3       0.16641    1.03513    0.49686   1.00
C3       0.33320    1.00990    0.53477   1.00
C3       0.16585    0.96516    0.50126   1.00
H1       0.27808    0.98282    0.43966   1.00
H1       0.22315    1.06262    0.49601   1.00
H1       0.35032    0.98283    0.44119   1.00
H1       0.15105    1.06266    0.49486   1.00
H1       0.34821    1.01721    0.56158   1.00
H1       0.14957    0.93814    0.50300   1.00
C5       0.22761    0.92540    0.50628   1.00
H1       0.27599    1.01701    0.56039   1.00
H2       0.20646    0.90097    0.50350   1.00
H2       0.24897    0.92183    0.48215   1.00
N1       0.24708    0.92237    0.54417   1.00
C6       0.22988    0.92496    0.57940   1.00
C6       0.28540    0.91610    0.55015   1.00
C6       0.25757    0.92067    0.60827   1.00
C6       0.29289    0.91504    0.58966   1.00
H3       0.19901    0.92994    0.58397   1.00
H3       0.30691    0.91295    0.52722   1.00
H3       0.25259    0.92150    0.63941   1.00
H3       0.32097    0.91070    0.60335   1.00
C4       0.72915    1.00005    0.50008   1.00
C4       0.77085    0.99995    0.49992   1.00
C3       0.70708    0.99042    0.53351   1.00
C3       0.79225    1.03506    0.50237   1.00
C3       0.70816    1.01005    0.46604   1.00
C3a      0.79263    0.96446    0.49781   1.00
C2       0.64483    1.00010    0.49850   1.00
C2       0.85517    1.00022    0.50145   1.00
C3       0.66566    0.99044    0.53266   1.00
C3       0.83359    1.03513    0.50314   1.00
C3       0.66680    1.00990    0.46523   1.00
C3       0.83415    0.96516    0.49874   1.00
H1       0.72192    0.98282    0.56034   1.00
H1       0.77685    1.06262    0.50399   1.00
H1       0.64968    0.98283    0.55881   1.00
H1       0.84895    1.06266    0.50514   1.00
H1       0.65179    1.01721    0.43842   1.00
H1       0.85043    0.93814    0.49700   1.00
C5       0.77239    0.92540    0.49372   1.00
H1       0.72401    1.01701    0.43961   1.00
H2       0.79354    0.90097    0.49650   1.00
H2       0.75103    0.92183    0.51785   1.00
N1       0.75292    0.92237    0.45583   1.00
C6       0.77012    0.92496    0.42060   1.00
C6       0.71460    0.91610    0.44985   1.00
C6       0.74243    0.92067    0.39173   1.00
C6       0.70711    0.91504    0.41034   1.00
H3       0.80099    0.92994    0.41603   1.00
H3       0.69309    0.91295    0.47278   1.00
H3       0.74741    0.92150    0.36059   1.00
H3       0.67903    0.91070    0.39665   1.00
C4       0.49992    0.77085    0.50005   1.00
C4       0.50008    0.72915    0.49995   1.00
C3       0.46649    0.79292    0.49042   1.00
C3       0.49763    0.70775    0.53506   1.00
C3       0.53396    0.79184    0.51005   1.00
C3a      0.50219    0.70737    0.46446   1.00
C2       0.50150    0.85517    0.50010   1.00
C2       0.49855    0.64483    0.50022   1.00
C3       0.46734    0.83434    0.49044   1.00
C3       0.49686    0.66641    0.53513   1.00
C3       0.53477    0.83320    0.50990   1.00
C3       0.50126    0.66585    0.46516   1.00
H1       0.43966    0.77808    0.48282   1.00
H1       0.49601    0.72315    0.56262   1.00
H1       0.44119    0.85032    0.48283   1.00
H1       0.49486    0.65105    0.56266   1.00
H1       0.56158    0.84821    0.51721   1.00
H1       0.50300    0.64957    0.43814   1.00
C5       0.50628    0.72761    0.42540   1.00
H1       0.56039    0.77599    0.51701   1.00
H2       0.50350    0.70646    0.40097   1.00
H2       0.48215    0.74897    0.42183   1.00
N1       0.54417    0.74708    0.42237   1.00
C6       0.57940    0.72988    0.42496   1.00
C6       0.55015    0.78540    0.41610   1.00
C6       0.60827    0.75757    0.42067   1.00
C6       0.58966    0.79289    0.41504   1.00
H3       0.58397    0.69901    0.42994   1.00
H3       0.52722    0.80691    0.41295   1.00
H3       0.63941    0.75259    0.42150   1.00
H3       0.60335    0.82097    0.41070   1.00
C4       0.50005    0.99992    0.27085   1.00
C4       0.49995    1.00008    0.22915   1.00
C3       0.49042    0.96649    0.29292   1.00
C3       0.53506    0.99763    0.20775   1.00
C3       0.51005    1.03396    0.29184   1.00
C3a      0.46446    1.00219    0.20737   1.00
C2       0.50010    1.00150    0.35517   1.00
C2       0.50022    0.99855    0.14483   1.00
C3       0.49044    0.96734    0.33434   1.00
C3       0.53513    0.99686    0.16641   1.00
C3       0.50990    1.03477    0.33320   1.00
C3       0.46516    1.00126    0.16585   1.00
H1       0.48282    0.93966    0.27808   1.00
H1       0.56262    0.99601    0.22315   1.00
H1       0.48283    0.94119    0.35032   1.00
H1       0.56266    0.99486    0.15105   1.00
H1       0.51721    1.06158    0.34821   1.00
H1       0.43814    1.00300    0.14957   1.00
C5       0.42540    1.00628    0.22761   1.00
H1       0.51701    1.06039    0.27599   1.00
H2       0.40097    1.00350    0.20646   1.00
H2       0.42183    0.98215    0.24897   1.00
N1       0.42237    1.04417    0.24708   1.00
C6       0.42496    1.07940    0.22988   1.00
C6       0.41610    1.05015    0.28540   1.00
C6       0.42067    1.10827    0.25757   1.00
C6       0.41504    1.08966    0.29289   1.00
H3       0.42994    1.08397    0.19901   1.00
H3       0.41295    1.02722    0.30691   1.00
H3       0.42150    1.13941    0.25259   1.00
H3       0.41070    1.10335    0.32097   1.00
C4       1.00005    0.50008    0.72915   1.00
C4       0.99995    0.49992    0.77085   1.00
C3       0.99042    0.53351    0.70708   1.00
C3       1.03506    0.50237    0.79225   1.00
C3       1.01005    0.46604    0.70816   1.00
C3a      0.96446    0.49781    0.79263   1.00
C2       1.00010    0.49850    0.64483   1.00
C2       1.00022    0.50145    0.85517   1.00
C3       0.99044    0.53266    0.66566   1.00
C3       1.03513    0.50314    0.83359   1.00
C3       1.00990    0.46523    0.66680   1.00
C3       0.96516    0.49874    0.83415   1.00
H1       0.98282    0.56034    0.72192   1.00
H1       1.06262    0.50399    0.77685   1.00
H1       0.98283    0.55881    0.64968   1.00
H1       1.06266    0.50514    0.84895   1.00
H1       1.01721    0.43842    0.65179   1.00
H1       0.93814    0.49700    0.85043   1.00
C5       0.92540    0.49372    0.77239   1.00
H1       1.01701    0.43961    0.72401   1.00
H2       0.90097    0.49650    0.79354   1.00
H2       0.92183    0.51785    0.75103   1.00
N1       0.92237    0.45583    0.75292   1.00
C6       0.92496    0.42060    0.77012   1.00
C6       0.91610    0.44985    0.71460   1.00
C6       0.92067    0.39173    0.74243   1.00
C6       0.91504    0.41034    0.70711   1.00
H3       0.92994    0.41603    0.80099   1.00
H3       0.91295    0.47278    0.69309   1.00
H3       0.92150    0.36059    0.74741   1.00
H3       0.91070    0.39665    0.67903   1.00
C4       1.00008    0.72915    0.50005   1.00
C4       0.99992    0.77085    0.49995   1.00
C3       1.03351    0.70708    0.49042   1.00
C3       1.00237    0.79225    0.53506   1.00
C3       0.96604    0.70816    0.51005   1.00
C3a      0.99781    0.79263    0.46446   1.00
C2       0.99850    0.64483    0.50010   1.00
C2       1.00145    0.85517    0.50022   1.00
C3       1.03266    0.66566    0.49044   1.00
C3       1.00314    0.83359    0.53513   1.00
C3       0.96523    0.66680    0.50990   1.00
C3       0.99874    0.83415    0.46516   1.00
H1       1.06034    0.72192    0.48282   1.00
H1       1.00399    0.77685    0.56262   1.00
H1       1.05881    0.64968    0.48283   1.00
H1       1.00514    0.84895    0.56266   1.00
H1       0.93842    0.65179    0.51721   1.00
H1       0.99700    0.85043    0.43814   1.00
C5       0.99372    0.77239    0.42540   1.00
H1       0.93961    0.72401    0.51701   1.00
H2       0.99650    0.79354    0.40097   1.00
H2       1.01785    0.75103    0.42183   1.00
N1       0.95583    0.75292    0.42237   1.00
C6       0.92060    0.77012    0.42496   1.00
C6       0.94985    0.71460    0.41610   1.00
C6       0.89173    0.74243    0.42067   1.00
C6       0.91034    0.70711    0.41504   1.00
H3       0.91603    0.80099    0.42994   1.00
H3       0.97278    0.69309    0.41295   1.00
H3       0.86059    0.74741    0.42150   1.00
H3       0.89665    0.67903    0.41070   1.00
C4       0.77085    0.50005    0.49992   1.00
C4       0.72915    0.49995    0.50008   1.00
C3       0.79292    0.49042    0.46649   1.00
C3       0.70775    0.53506    0.49763   1.00
C3       0.79184    0.51005    0.53396   1.00
C3a      0.70737    0.46446    0.50219   1.00
C2       0.85517    0.50010    0.50150   1.00
C2       0.64483    0.50022    0.49855   1.00
C3       0.83434    0.49044    0.46734   1.00
C3       0.66641    0.53513    0.49686   1.00
C3       0.83320    0.50990    0.53477   1.00
C3       0.66585    0.46516    0.50126   1.00
H1       0.77808    0.48282    0.43966   1.00
H1       0.72315    0.56262    0.49601   1.00
H1       0.85032    0.48283    0.44119   1.00
H1       0.65105    0.56266    0.49486   1.00
H1       0.84821    0.51721    0.56158   1.00
H1       0.64957    0.43814    0.50300   1.00
C5       0.72761    0.42540    0.50628   1.00
H1       0.77599    0.51701    0.56039   1.00
H2       0.70646    0.40097    0.50350   1.00
H2       0.74897    0.42183    0.48215   1.00
N1       0.74708    0.42237    0.54417   1.00
C6       0.72988    0.42496    0.57940   1.00
C6       0.78540    0.41610    0.55015   1.00
C6       0.75757    0.42067    0.60827   1.00
C6       0.79289    0.41504    0.58966   1.00
H3       0.69901    0.42994    0.58397   1.00
H3       0.80691    0.41295    0.52722   1.00
H3       0.75259    0.42150    0.63941   1.00
H3       0.82097    0.41070    0.60335   1.00
C4       1.22915    0.50005    0.50008   1.00
C4       1.27085    0.49995    0.49992   1.00
C3       1.20708    0.49042    0.53351   1.00
C3       1.29225    0.53506    0.50237   1.00
C3       1.20816    0.51005    0.46604   1.00
C3a      1.29263    0.46446    0.49781   1.00
C2       1.14483    0.50010    0.49850   1.00
C2       1.35517    0.50022    0.50145   1.00
C3       1.16566    0.49044    0.53266   1.00
C3       1.33359    0.53513    0.50314   1.00
C3       1.16680    0.50990    0.46523   1.00
C3       1.33415    0.46516    0.49874   1.00
H1       1.22192    0.48282    0.56034   1.00
H1       1.27685    0.56262    0.50399   1.00
H1       1.14968    0.48283    0.55881   1.00
H1       1.34895    0.56266    0.50514   1.00
H1       1.15179    0.51721    0.43842   1.00
H1       1.35043    0.43814    0.49700   1.00
C5       1.27239    0.42540    0.49372   1.00
H1       1.22401    0.51701    0.43961   1.00
H2       1.29354    0.40097    0.49650   1.00
H2       1.25103    0.42183    0.51785   1.00
N1       1.25292    0.42237    0.45583   1.00
C6       1.27012    0.42496    0.42060   1.00
C6       1.21460    0.41610    0.44985   1.00
C6       1.24243    0.42067    0.39173   1.00
C6       1.20711    0.41504    0.41034   1.00
H3       1.30099    0.42994    0.41603   1.00
H3       1.19309    0.41295    0.47278   1.00
H3       1.24741    0.42150    0.36059   1.00
H3       1.17903    0.41070    0.39665   1.00
C4       0.99992    0.27085    0.50005   1.00
C4       1.00008    0.22915    0.49995   1.00
C3       0.96649    0.29292    0.49042   1.00
C3       0.99763    0.20775    0.53506   1.00
C3       1.03396    0.29184    0.51005   1.00
C3a      1.00219    0.20737    0.46446   1.00
C2       1.00150    0.35517    0.50010   1.00
C2       0.99855    0.14483    0.50022   1.00
C3       0.96734    0.33434    0.49044   1.00
C3       0.99686    0.16641    0.53513   1.00
C3       1.03477    0.33320    0.50990   1.00
C3       1.00126    0.16585    0.46516   1.00
H1       0.93966    0.27808    0.48282   1.00
H1       0.99601    0.22315    0.56262   1.00
H1       0.94119    0.35032    0.48283   1.00
H1       0.99486    0.15105    0.56266   1.00
H1       1.06158    0.34821    0.51721   1.00
H1       1.00300    0.14957    0.43814   1.00
C5       1.00628    0.22761    0.42540   1.00
H1       1.06039    0.27599    0.51701   1.00
H2       1.00350    0.20646    0.40097   1.00
H2       0.98215    0.24897    0.42183   1.00
N1       1.04417    0.24708    0.42237   1.00
C6       1.07940    0.22988    0.42496   1.00
C6       1.05015    0.28540    0.41610   1.00
C6       1.10827    0.25757    0.42067   1.00
C6       1.08966    0.29289    0.41504   1.00
H3       1.08397    0.19901    0.42994   1.00
H3       1.02722    0.30691    0.41295   1.00
H3       1.13941    0.25259    0.42150   1.00
H3       1.10335    0.32097    0.41070   1.00
C4       1.00005    0.49992    0.27085   1.00
C4       0.99995    0.50008    0.22915   1.00
C3       0.99042    0.46649    0.29292   1.00
C3       1.03506    0.49763    0.20775   1.00
C3       1.01005    0.53396    0.29184   1.00
C3a      0.96446    0.50219    0.20737   1.00
C2       1.00010    0.50150    0.35517   1.00
C2       1.00022    0.49855    0.14483   1.00
C3       0.99044    0.46734    0.33434   1.00
C3       1.03513    0.49686    0.16641   1.00
C3       1.00990    0.53477    0.33320   1.00
C3       0.96516    0.50126    0.16585   1.00
H1       0.98282    0.43966    0.27808   1.00
H1       1.06262    0.49601    0.22315   1.00
H1       0.98283    0.44119    0.35032   1.00
H1       1.06266    0.49486    0.15105   1.00
H1       1.01721    0.56158    0.34821   1.00
H1       0.93814    0.50300    0.14957   1.00
C5       0.92540    0.50628    0.22761   1.00
H1       1.01701    0.56039    0.27599   1.00
H2       0.90097    0.50350    0.20646   1.00
H2       0.92183    0.48215    0.24897   1.00
N1       0.92237    0.54417    0.24708   1.00
C6       0.92496    0.57940    0.22988   1.00
C6       0.91610    0.55015    0.28540   1.00
C6       0.92067    0.60827    0.25757   1.00
C6       0.91504    0.58966    0.29289   1.00
H3       0.92994    0.58397    0.19901   1.00
H3       0.91295    0.52722    0.30691   1.00
H3       0.92150    0.63941    0.25259   1.00
H3       0.91070    0.60335    0.32097   1.00
