data_IRMOF10_SG202_interpen_Ligand8lp_label_g.

_audit_creation_method             'generated by an auxiliary program of Tobunporous'

_symmetry_space_group_name_H-M     'P 1'
_symmetry_Int_Tables_number        1
_symmetry_cell_setting             triclinic

_cell_length_a                    34.2800
_cell_length_b                    34.2800
_cell_length_c                    34.2800
_cell_angle_alpha                 90.0000
_cell_angle_beta                  90.0000
_cell_angle_gamma                 90.0000

loop_
_atom_site_label
_atom_site_fract_x
_atom_site_fract_y
_atom_site_fract_z
_atom_site_occupancy
O1       0.75000    0.75000    0.75000   1.00
Zn1      0.71720    0.78280    0.78280   1.00
Zn1      0.78280    0.71720    0.78280   1.00
Zn1      0.78280    0.78280    0.71720   1.00
Zn1      0.71720    0.71720    0.71720   1.00
O2       0.72650    0.77350    0.83820   1.00
O2       0.72650    0.83820    0.77350   1.00
O2       0.66180    0.77350    0.77350   1.00
O2       0.77350    0.72650    0.83820   1.00
O2       0.83820    0.72650    0.77350   1.00
O2       0.77350    0.66180    0.77350   1.00
O2       0.77350    0.83820    0.72650   1.00
O2       0.83820    0.77350    0.72650   1.00
O2       0.77350    0.77350    0.66180   1.00
O2       0.66180    0.72650    0.72650   1.00
O2       0.72650    0.66180    0.72650   1.00
O2       0.72650    0.72650    0.66180   1.00
C1       0.75000    0.75000    0.85520   1.00
C1       0.75000    0.85520    0.75000   1.00
C1       0.64480    0.75000    0.75000   1.00
C1       0.85520    0.75000    0.75000   1.00
C1       0.75000    0.64480    0.75000   1.00
C1       0.75000    0.75000    0.64480   1.00
O1       0.25000    0.25000    0.75000   1.00
Zn1      0.21720    0.28280    0.78280   1.00
Zn1      0.28280    0.21720    0.78280   1.00
Zn1      0.28280    0.28280    0.71720   1.00
Zn1      0.21720    0.21720    0.71720   1.00
O2       0.22650    0.27350    0.83820   1.00
O2       0.22650    0.33820    0.77350   1.00
O2       0.16180    0.27350    0.77350   1.00
O2       0.27350    0.22650    0.83820   1.00
O2       0.33820    0.22650    0.77350   1.00
O2       0.27350    0.16180    0.77350   1.00
O2       0.27350    0.33820    0.72650   1.00
O2       0.33820    0.27350    0.72650   1.00
O2       0.27350    0.27350    0.66180   1.00
O2       0.16180    0.22650    0.72650   1.00
O2       0.22650    0.16180    0.72650   1.00
O2       0.22650    0.22650    0.66180   1.00
C1       0.25000    0.25000    0.85520   1.00
C1       0.25000    0.35520    0.75000   1.00
C1       0.14480    0.25000    0.75000   1.00
C1       0.35520    0.25000    0.75000   1.00
C1       0.25000    0.14480    0.75000   1.00
C1       0.25000    0.25000    0.64480   1.00
O1       0.25000    0.75000    0.25000   1.00
Zn1      0.21720    0.78280    0.28280   1.00
Zn1      0.28280    0.71720    0.28280   1.00
Zn1      0.28280    0.78280    0.21720   1.00
Zn1      0.21720    0.71720    0.21720   1.00
O2       0.22650    0.77350    0.33820   1.00
O2       0.22650    0.83820    0.27350   1.00
O2       0.16180    0.77350    0.27350   1.00
O2       0.27350    0.72650    0.33820   1.00
O2       0.33820    0.72650    0.27350   1.00
O2       0.27350    0.66180    0.27350   1.00
O2       0.27350    0.83820    0.22650   1.00
O2       0.33820    0.77350    0.22650   1.00
O2       0.27350    0.77350    0.16180   1.00
O2       0.16180    0.72650    0.22650   1.00
O2       0.22650    0.66180    0.22650   1.00
O2       0.22650    0.72650    0.16180   1.00
C1       0.25000    0.75000    0.35520   1.00
C1       0.25000    0.85520    0.25000   1.00
C1       0.14480    0.75000    0.25000   1.00
C1       0.35520    0.75000    0.25000   1.00
C1       0.25000    0.64480    0.25000   1.00
C1       0.25000    0.75000    0.14480   1.00
O1       0.75000    0.25000    0.25000   1.00
Zn1      0.71720    0.28280    0.28280   1.00
Zn1      0.78280    0.21720    0.28280   1.00
Zn1      0.78280    0.28280    0.21720   1.00
Zn1      0.71720    0.21720    0.21720   1.00
O2       0.72650    0.27350    0.33820   1.00
O2       0.72650    0.33820    0.27350   1.00
O2       0.66180    0.27350    0.27350   1.00
O2       0.77350    0.22650    0.33820   1.00
O2       0.83820    0.22650    0.27350   1.00
O2       0.77350    0.16180    0.27350   1.00
O2       0.77350    0.33820    0.22650   1.00
O2       0.83820    0.27350    0.22650   1.00
O2       0.77350    0.27350    0.16180   1.00
O2       0.66180    0.22650    0.22650   1.00
O2       0.72650    0.16180    0.22650   1.00
O2       0.72650    0.22650    0.16180   1.00
C1       0.75000    0.25000    0.35520   1.00
C1       0.75000    0.35520    0.25000   1.00
C1       0.64480    0.25000    0.25000   1.00
C1       0.85520    0.25000    0.25000   1.00
C1       0.75000    0.14480    0.25000   1.00
C1       0.75000    0.25000    0.14480   1.00
O1       0.25000    0.25000    0.25000   1.00
Zn1      0.28280    0.21720    0.21720   1.00
Zn1      0.21720    0.28280    0.21720   1.00
Zn1      0.21720    0.21720    0.28280   1.00
Zn1      0.28280    0.28280    0.28280   1.00
O2       0.27350    0.22650    0.16180   1.00
O2       0.27350    0.16180    0.22650   1.00
O2       0.33820    0.22650    0.22650   1.00
O2       0.22650    0.27350    0.16180   1.00
O2       0.16180    0.27350    0.22650   1.00
O2       0.22650    0.33820    0.22650   1.00
O2       0.22650    0.16180    0.27350   1.00
O2       0.16180    0.22650    0.27350   1.00
O2       0.22650    0.22650    0.33820   1.00
O2       0.33820    0.27350    0.27350   1.00
O2       0.27350    0.33820    0.27350   1.00
O2       0.27350    0.27350    0.33820   1.00
C1       0.25000    0.25000    0.14480   1.00
C1       0.25000    0.14480    0.25000   1.00
C1       0.35520    0.25000    0.25000   1.00
C1       0.14480    0.25000    0.25000   1.00
C1       0.25000    0.35520    0.25000   1.00
C1       0.25000    0.25000    0.35520   1.00
O1       0.75000    0.75000    0.25000   1.00
Zn1      0.78280    0.71720    0.21720   1.00
Zn1      0.71720    0.78280    0.21720   1.00
Zn1      0.71720    0.71720    0.28280   1.00
Zn1      0.78280    0.78280    0.28280   1.00
O2       0.77350    0.72650    0.16180   1.00
O2       0.77350    0.66180    0.22650   1.00
O2       0.83820    0.72650    0.22650   1.00
O2       0.72650    0.77350    0.16180   1.00
O2       0.66180    0.77350    0.22650   1.00
O2       0.72650    0.83820    0.22650   1.00
O2       0.72650    0.66180    0.27350   1.00
O2       0.66180    0.72650    0.27350   1.00
O2       0.72650    0.72650    0.33820   1.00
O2       0.83820    0.77350    0.27350   1.00
O2       0.77350    0.83820    0.27350   1.00
O2       0.77350    0.77350    0.33820   1.00
C1       0.75000    0.75000    0.14480   1.00
C1       0.75000    0.64480    0.25000   1.00
C1       0.85520    0.75000    0.25000   1.00
C1       0.64480    0.75000    0.25000   1.00
C1       0.75000    0.85520    0.25000   1.00
C1       0.75000    0.75000    0.35520   1.00
O1       0.75000    0.25000    0.75000   1.00
Zn1      0.78280    0.21720    0.71720   1.00
Zn1      0.71720    0.28280    0.71720   1.00
Zn1      0.71720    0.21720    0.78280   1.00
Zn1      0.78280    0.28280    0.78280   1.00
O2       0.77350    0.22650    0.66180   1.00
O2       0.77350    0.16180    0.72650   1.00
O2       0.83820    0.22650    0.72650   1.00
O2       0.72650    0.27350    0.66180   1.00
O2       0.66180    0.27350    0.72650   1.00
O2       0.72650    0.33820    0.72650   1.00
O2       0.72650    0.16180    0.77350   1.00
O2       0.66180    0.22650    0.77350   1.00
O2       0.72650    0.22650    0.83820   1.00
O2       0.83820    0.27350    0.77350   1.00
O2       0.77350    0.33820    0.77350   1.00
O2       0.77350    0.27350    0.83820   1.00
C1       0.75000    0.25000    0.64480   1.00
C1       0.75000    0.14480    0.75000   1.00
C1       0.85520    0.25000    0.75000   1.00
C1       0.64480    0.25000    0.75000   1.00
C1       0.75000    0.35520    0.75000   1.00
C1       0.75000    0.25000    0.85520   1.00
O1       0.25000    0.75000    0.75000   1.00
Zn1      0.28280    0.71720    0.71720   1.00
Zn1      0.21720    0.78280    0.71720   1.00
Zn1      0.21720    0.71720    0.78280   1.00
Zn1      0.28280    0.78280    0.78280   1.00
O2       0.27350    0.72650    0.66180   1.00
O2       0.27350    0.66180    0.72650   1.00
O2       0.33820    0.72650    0.72650   1.00
O2       0.22650    0.77350    0.66180   1.00
O2       0.16180    0.77350    0.72650   1.00
O2       0.22650    0.83820    0.72650   1.00
O2       0.22650    0.66180    0.77350   1.00
O2       0.16180    0.72650    0.77350   1.00
O2       0.22650    0.72650    0.83820   1.00
O2       0.33820    0.77350    0.77350   1.00
O2       0.27350    0.83820    0.77350   1.00
O2       0.27350    0.77350    0.83820   1.00
C1       0.25000    0.75000    0.64480   1.00
C1       0.25000    0.64480    0.75000   1.00
C1       0.35520    0.75000    0.75000   1.00
C1       0.14480    0.75000    0.75000   1.00
C1       0.25000    0.85520    0.75000   1.00
C1       0.25000    0.75000    0.85520   1.00
O1       1.00000    1.00000    1.00000   1.00
Zn1      0.96720    1.03280    1.03280   1.00
Zn1      1.03280    0.96720    1.03280   1.00
Zn1      1.03280    1.03280    0.96720   1.00
Zn1      0.96720    0.96720    0.96720   1.00
O2       0.97650    1.02350    1.08820   1.00
O2       0.97650    1.08820    1.02350   1.00
O2       0.91180    1.02350    1.02350   1.00
O2       1.02350    0.97650    1.08820   1.00
O2       1.08820    0.97650    1.02350   1.00
O2       1.02350    0.91180    1.02350   1.00
O2       1.02350    1.08820    0.97650   1.00
O2       1.08820    1.02350    0.97650   1.00
O2       1.02350    1.02350    0.91180   1.00
O2       0.91180    0.97650    0.97650   1.00
O2       0.97650    0.91180    0.97650   1.00
O2       0.97650    0.97650    0.91180   1.00
C1       1.00000    1.00000    1.10520   1.00
C1       1.00000    1.10520    1.00000   1.00
C1       0.89480    1.00000    1.00000   1.00
C1       1.10520    1.00000    1.00000   1.00
C1       1.00000    0.89480    1.00000   1.00
C1       1.00000    1.00000    0.89480   1.00
O1       0.50000    0.50000    1.00000   1.00
Zn1      0.46720    0.53280    1.03280   1.00
Zn1      0.53280    0.46720    1.03280   1.00
Zn1      0.53280    0.53280    0.96720   1.00
Zn1      0.46720    0.46720    0.96720   1.00
O2       0.47650    0.52350    1.08820   1.00
O2       0.47650    0.58820    1.02350   1.00
O2       0.41180    0.52350    1.02350   1.00
O2       0.52350    0.47650    1.08820   1.00
O2       0.58820    0.47650    1.02350   1.00
O2       0.52350    0.41180    1.02350   1.00
O2       0.52350    0.58820    0.97650   1.00
O2       0.58820    0.52350    0.97650   1.00
O2       0.52350    0.52350    0.91180   1.00
O2       0.41180    0.47650    0.97650   1.00
O2       0.47650    0.41180    0.97650   1.00
O2       0.47650    0.47650    0.91180   1.00
C1       0.50000    0.50000    1.10520   1.00
C1       0.50000    0.60520    1.00000   1.00
C1       0.39480    0.50000    1.00000   1.00
C1       0.60520    0.50000    1.00000   1.00
C1       0.50000    0.39480    1.00000   1.00
C1       0.50000    0.50000    0.89480   1.00
O1       0.50000    1.00000    0.50000   1.00
Zn1      0.46720    1.03280    0.53280   1.00
Zn1      0.53280    0.96720    0.53280   1.00
Zn1      0.53280    1.03280    0.46720   1.00
Zn1      0.46720    0.96720    0.46720   1.00
O2       0.47650    1.02350    0.58820   1.00
O2       0.47650    1.08820    0.52350   1.00
O2       0.41180    1.02350    0.52350   1.00
O2       0.52350    0.97650    0.58820   1.00
O2       0.58820    0.97650    0.52350   1.00
O2       0.52350    0.91180    0.52350   1.00
O2       0.52350    1.08820    0.47650   1.00
O2       0.58820    1.02350    0.47650   1.00
O2       0.52350    1.02350    0.41180   1.00
O2       0.41180    0.97650    0.47650   1.00
O2       0.47650    0.91180    0.47650   1.00
O2       0.47650    0.97650    0.41180   1.00
C1       0.50000    1.00000    0.60520   1.00
C1       0.50000    1.10520    0.50000   1.00
C1       0.39480    1.00000    0.50000   1.00
C1       0.60520    1.00000    0.50000   1.00
C1       0.50000    0.89480    0.50000   1.00
C1       0.50000    1.00000    0.39480   1.00
O1       1.00000    0.50000    0.50000   1.00
Zn1      0.96720    0.53280    0.53280   1.00
Zn1      1.03280    0.46720    0.53280   1.00
Zn1      1.03280    0.53280    0.46720   1.00
Zn1      0.96720    0.46720    0.46720   1.00
O2       0.97650    0.52350    0.58820   1.00
O2       0.97650    0.58820    0.52350   1.00
O2       0.91180    0.52350    0.52350   1.00
O2       1.02350    0.47650    0.58820   1.00
O2       1.08820    0.47650    0.52350   1.00
O2       1.02350    0.41180    0.52350   1.00
O2       1.02350    0.58820    0.47650   1.00
O2       1.08820    0.52350    0.47650   1.00
O2       1.02350    0.52350    0.41180   1.00
O2       0.91180    0.47650    0.47650   1.00
O2       0.97650    0.41180    0.47650   1.00
O2       0.97650    0.47650    0.41180   1.00
C1       1.00000    0.50000    0.60520   1.00
C1       1.00000    0.60520    0.50000   1.00
C1       0.89480    0.50000    0.50000   1.00
C1       1.10520    0.50000    0.50000   1.00
C1       1.00000    0.39480    0.50000   1.00
C1       1.00000    0.50000    0.39480   1.00
O1       0.50000    0.50000    0.50000   1.00
Zn1      0.53280    0.46720    0.46720   1.00
Zn1      0.46720    0.53280    0.46720   1.00
Zn1      0.46720    0.46720    0.53280   1.00
Zn1      0.53280    0.53280    0.53280   1.00
O2       0.52350    0.47650    0.41180   1.00
O2       0.52350    0.41180    0.47650   1.00
O2       0.58820    0.47650    0.47650   1.00
O2       0.47650    0.52350    0.41180   1.00
O2       0.41180    0.52350    0.47650   1.00
O2       0.47650    0.58820    0.47650   1.00
O2       0.47650    0.41180    0.52350   1.00
O2       0.41180    0.47650    0.52350   1.00
O2       0.47650    0.47650    0.58820   1.00
O2       0.58820    0.52350    0.52350   1.00
O2       0.52350    0.58820    0.52350   1.00
O2       0.52350    0.52350    0.58820   1.00
C1       0.50000    0.50000    0.39480   1.00
C1       0.50000    0.39480    0.50000   1.00
C1       0.60520    0.50000    0.50000   1.00
C1       0.39480    0.50000    0.50000   1.00
C1       0.50000    0.60520    0.50000   1.00
C1       0.50000    0.50000    0.60520   1.00
O1       1.00000    1.00000    0.50000   1.00
Zn1      1.03280    0.96720    0.46720   1.00
Zn1      0.96720    1.03280    0.46720   1.00
Zn1      0.96720    0.96720    0.53280   1.00
Zn1      1.03280    1.03280    0.53280   1.00
O2       1.02350    0.97650    0.41180   1.00
O2       1.02350    0.91180    0.47650   1.00
O2       1.08820    0.97650    0.47650   1.00
O2       0.97650    1.02350    0.41180   1.00
O2       0.91180    1.02350    0.47650   1.00
O2       0.97650    1.08820    0.47650   1.00
O2       0.97650    0.91180    0.52350   1.00
O2       0.91180    0.97650    0.52350   1.00
O2       0.97650    0.97650    0.58820   1.00
O2       1.08820    1.02350    0.52350   1.00
O2       1.02350    1.08820    0.52350   1.00
O2       1.02350    1.02350    0.58820   1.00
C1       1.00000    1.00000    0.39480   1.00
C1       1.00000    0.89480    0.50000   1.00
C1       1.10520    1.00000    0.50000   1.00
C1       0.89480    1.00000    0.50000   1.00
C1       1.00000    1.10520    0.50000   1.00
C1       1.00000    1.00000    0.60520   1.00
O1       1.00000    0.50000    1.00000   1.00
Zn1      1.03280    0.46720    0.96720   1.00
Zn1      0.96720    0.53280    0.96720   1.00
Zn1      0.96720    0.46720    1.03280   1.00
Zn1      1.03280    0.53280    1.03280   1.00
O2       1.02350    0.47650    0.91180   1.00
O2       1.02350    0.41180    0.97650   1.00
O2       1.08820    0.47650    0.97650   1.00
O2       0.97650    0.52350    0.91180   1.00
O2       0.91180    0.52350    0.97650   1.00
O2       0.97650    0.58820    0.97650   1.00
O2       0.97650    0.41180    1.02350   1.00
O2       0.91180    0.47650    1.02350   1.00
O2       0.97650    0.47650    1.08820   1.00
O2       1.08820    0.52350    1.02350   1.00
O2       1.02350    0.58820    1.02350   1.00
O2       1.02350    0.52350    1.08820   1.00
C1       1.00000    0.50000    0.89480   1.00
C1       1.00000    0.39480    1.00000   1.00
C1       1.10520    0.50000    1.00000   1.00
C1       0.89480    0.50000    1.00000   1.00
C1       1.00000    0.60520    1.00000   1.00
C1       1.00000    0.50000    1.10520   1.00
O1       0.50000    1.00000    1.00000   1.00
Zn1      0.53280    0.96720    0.96720   1.00
Zn1      0.46720    1.03280    0.96720   1.00
Zn1      0.46720    0.96720    1.03280   1.00
Zn1      0.53280    1.03280    1.03280   1.00
O2       0.52350    0.97650    0.91180   1.00
O2       0.52350    0.91180    0.97650   1.00
O2       0.58820    0.97650    0.97650   1.00
O2       0.47650    1.02350    0.91180   1.00
O2       0.41180    1.02350    0.97650   1.00
O2       0.47650    1.08820    0.97650   1.00
O2       0.47650    0.91180    1.02350   1.00
O2       0.41180    0.97650    1.02350   1.00
O2       0.47650    0.97650    1.08820   1.00
O2       0.58820    1.02350    1.02350   1.00
O2       0.52350    1.08820    1.02350   1.00
O2       0.52350    1.02350    1.08820   1.00
C1       0.50000    1.00000    0.89480   1.00
C1       0.50000    0.89480    1.00000   1.00
C1       0.60520    1.00000    1.00000   1.00
C1       0.39480    1.00000    1.00000   1.00
C1       0.50000    1.10520    1.00000   1.00
C1       0.50000    1.00000    1.10520   1.00
C4       0.75010    0.75002    0.97915   1.00
C4       0.74990    0.74998    1.02085   1.00
C3       0.76692    0.78047    0.95708   1.00
C3       0.77647    0.72688    1.04225   1.00
C3       0.73310    0.71888    0.95816   1.00
C3a      0.72332    0.77358    1.04263   1.00
C2       0.74901    0.74887    0.89483   1.00
C2       0.75118    0.75087    1.10517   1.00
C3       0.76633    0.77985    0.91566   1.00
C3       0.77706    0.72738    1.08359   1.00
C3       0.73242    0.71842    0.91680   1.00
C3       0.72447    0.77375    1.08415   1.00
H1       0.78052    0.80482    0.97192   1.00
H1       0.79710    0.70854    1.02685   1.00
H1       0.77945    0.80373    0.89968   1.00
H1       0.79795    0.70933    1.09895   1.00
H1       0.71862    0.69429    0.90179   1.00
H1       0.70414    0.79162    1.10043   1.00
C5       0.69281    0.79831    1.02239   1.00
H1       0.71933    0.69527    0.97401   1.00
H2       0.67750    0.81755    1.04354   1.00
H2       0.70734    0.81790    1.00103   1.00
N1       0.66388    0.77366    1.00292   1.00
C6       0.64080    0.74691    1.02012   1.00
C6       0.65521    0.77386    0.96460   1.00
C6       0.61734    0.72954    0.99243   1.00
C6       0.62653    0.74667    0.95711   1.00
H3       0.64109    0.74016    1.05099   1.00
H3       0.66920    0.79231    0.94309   1.00
H3       0.59591    0.70693    0.99741   1.00
H3       0.61378    0.74006    0.92903   1.00
C4       0.75002    0.97915    0.75010   1.00
C4       0.74998    1.02085    0.74990   1.00
C3       0.78047    0.95708    0.76692   1.00
C3       0.72688    1.04225    0.77647   1.00
C3       0.71888    0.95816    0.73310   1.00
C3a      0.77358    1.04263    0.72332   1.00
C2       0.74887    0.89483    0.74901   1.00
C2       0.75087    1.10517    0.75118   1.00
C3       0.77985    0.91566    0.76633   1.00
C3       0.72738    1.08359    0.77706   1.00
C3       0.71842    0.91680    0.73242   1.00
C3       0.77375    1.08415    0.72447   1.00
H1       0.80482    0.97192    0.78052   1.00
H1       0.70854    1.02685    0.79710   1.00
H1       0.80373    0.89968    0.77945   1.00
H1       0.70933    1.09895    0.79795   1.00
H1       0.69429    0.90179    0.71862   1.00
H1       0.79162    1.10043    0.70414   1.00
C5       0.79831    1.02239    0.69281   1.00
H1       0.69527    0.97401    0.71933   1.00
H2       0.81755    1.04354    0.67750   1.00
H2       0.81790    1.00103    0.70734   1.00
N1       0.77366    1.00292    0.66388   1.00
C6       0.74691    1.02012    0.64080   1.00
C6       0.77386    0.96460    0.65521   1.00
C6       0.72954    0.99243    0.61734   1.00
C6       0.74667    0.95711    0.62653   1.00
H3       0.74016    1.05099    0.64109   1.00
H3       0.79231    0.94309    0.66920   1.00
H3       0.70693    0.99741    0.59591   1.00
H3       0.74006    0.92903    0.61378   1.00
C4       0.52085    0.75010    0.74998   1.00
C4       0.47915    0.74990    0.75002   1.00
C3       0.54292    0.76692    0.71953   1.00
C3       0.45775    0.77647    0.77312   1.00
C3       0.54184    0.73310    0.78112   1.00
C3a      0.45737    0.72332    0.72642   1.00
C2       0.60517    0.74901    0.75113   1.00
C2       0.39483    0.75118    0.74913   1.00
C3       0.58434    0.76633    0.72015   1.00
C3       0.41641    0.77706    0.77262   1.00
C3       0.58320    0.73242    0.78158   1.00
C3       0.41585    0.72447    0.72625   1.00
H1       0.52808    0.78052    0.69518   1.00
H1       0.47315    0.79710    0.79146   1.00
H1       0.60032    0.77945    0.69627   1.00
H1       0.40105    0.79795    0.79067   1.00
H1       0.59821    0.71862    0.80571   1.00
H1       0.39957    0.70414    0.70838   1.00
C5       0.47761    0.69281    0.70169   1.00
H1       0.52599    0.71933    0.80473   1.00
H2       0.45646    0.67750    0.68245   1.00
H2       0.49897    0.70734    0.68210   1.00
N1       0.49708    0.66388    0.72634   1.00
C6       0.47988    0.64080    0.75309   1.00
C6       0.53540    0.65521    0.72614   1.00
C6       0.50757    0.61734    0.77046   1.00
C6       0.54289    0.62653    0.75333   1.00
H3       0.44901    0.64109    0.75984   1.00
H3       0.55691    0.66920    0.70769   1.00
H3       0.50259    0.59591    0.79307   1.00
H3       0.57097    0.61378    0.75994   1.00
C4       0.97915    0.75010    0.75002   1.00
C4       1.02085    0.74990    0.74998   1.00
C3       0.95708    0.76692    0.78047   1.00
C3       1.04225    0.77647    0.72688   1.00
C3       0.95816    0.73310    0.71888   1.00
C3a      1.04263    0.72332    0.77358   1.00
C2       0.89483    0.74901    0.74887   1.00
C2       1.10517    0.75118    0.75087   1.00
C3       0.91566    0.76633    0.77985   1.00
C3       1.08359    0.77706    0.72738   1.00
C3       0.91680    0.73242    0.71842   1.00
C3       1.08415    0.72447    0.77375   1.00
H1       0.97192    0.78052    0.80482   1.00
H1       1.02685    0.79710    0.70854   1.00
H1       0.89968    0.77945    0.80373   1.00
H1       1.09895    0.79795    0.70933   1.00
H1       0.90179    0.71862    0.69429   1.00
H1       1.10043    0.70414    0.79162   1.00
C5       1.02239    0.69281    0.79831   1.00
H1       0.97401    0.71933    0.69527   1.00
H2       1.04354    0.67750    0.81755   1.00
H2       1.00103    0.70734    0.81790   1.00
N1       1.00292    0.66388    0.77366   1.00
C6       1.02012    0.64080    0.74691   1.00
C6       0.96460    0.65521    0.77386   1.00
C6       0.99243    0.61734    0.72954   1.00
C6       0.95711    0.62653    0.74667   1.00
H3       1.05099    0.64109    0.74016   1.00
H3       0.94309    0.66920    0.79231   1.00
H3       0.99741    0.59591    0.70693   1.00
H3       0.92903    0.61378    0.74006   1.00
C4       0.74998    0.52085    0.75010   1.00
C4       0.75002    0.47915    0.74990   1.00
C3       0.71953    0.54292    0.76692   1.00
C3       0.77312    0.45775    0.77647   1.00
C3       0.78112    0.54184    0.73310   1.00
C3a      0.72642    0.45737    0.72332   1.00
C2       0.75113    0.60517    0.74901   1.00
C2       0.74913    0.39483    0.75118   1.00
C3       0.72015    0.58434    0.76633   1.00
C3       0.77262    0.41641    0.77706   1.00
C3       0.78158    0.58320    0.73242   1.00
C3       0.72625    0.41585    0.72447   1.00
H1       0.69518    0.52808    0.78052   1.00
H1       0.79146    0.47315    0.79710   1.00
H1       0.69627    0.60032    0.77945   1.00
H1       0.79067    0.40105    0.79795   1.00
H1       0.80571    0.59821    0.71862   1.00
H1       0.70838    0.39957    0.70414   1.00
C5       0.70169    0.47761    0.69281   1.00
H1       0.80473    0.52599    0.71933   1.00
H2       0.68245    0.45646    0.67750   1.00
H2       0.68210    0.49897    0.70734   1.00
N1       0.72634    0.49708    0.66388   1.00
C6       0.75309    0.47988    0.64080   1.00
C6       0.72614    0.53540    0.65521   1.00
C6       0.77046    0.50757    0.61734   1.00
C6       0.75333    0.54289    0.62653   1.00
H3       0.75984    0.44901    0.64109   1.00
H3       0.70769    0.55691    0.66920   1.00
H3       0.79307    0.50259    0.59591   1.00
H3       0.75994    0.57097    0.61378   1.00
C4       0.75010    0.74998    0.52085   1.00
C4       0.74990    0.75002    0.47915   1.00
C3       0.76692    0.71953    0.54292   1.00
C3       0.77647    0.77312    0.45775   1.00
C3       0.73310    0.78112    0.54184   1.00
C3a      0.72332    0.72642    0.45737   1.00
C2       0.74901    0.75113    0.60517   1.00
C2       0.75118    0.74913    0.39483   1.00
C3       0.76633    0.72015    0.58434   1.00
C3       0.77706    0.77262    0.41641   1.00
C3       0.73242    0.78158    0.58320   1.00
C3       0.72447    0.72625    0.41585   1.00
H1       0.78052    0.69518    0.52808   1.00
H1       0.79710    0.79146    0.47315   1.00
H1       0.77945    0.69627    0.60032   1.00
H1       0.79795    0.79067    0.40105   1.00
H1       0.71862    0.80571    0.59821   1.00
H1       0.70414    0.70838    0.39957   1.00
C5       0.69281    0.70169    0.47761   1.00
H1       0.71933    0.80473    0.52599   1.00
H2       0.67750    0.68245    0.45646   1.00
H2       0.70734    0.68210    0.49897   1.00
N1       0.66388    0.72634    0.49708   1.00
C6       0.64080    0.75309    0.47988   1.00
C6       0.65521    0.72614    0.53540   1.00
C6       0.61734    0.77046    0.50757   1.00
C6       0.62653    0.75333    0.54289   1.00
H3       0.64109    0.75984    0.44901   1.00
H3       0.66920    0.70769    0.55691   1.00
H3       0.59591    0.79307    0.50259   1.00
H3       0.61378    0.75994    0.57097   1.00
C4       0.25010    0.25002    0.97915   1.00
C4       0.24990    0.24998    1.02085   1.00
C3       0.26692    0.28047    0.95708   1.00
C3       0.27647    0.22688    1.04225   1.00
C3       0.23310    0.21888    0.95816   1.00
C3a      0.22332    0.27358    1.04263   1.00
C2       0.24901    0.24887    0.89483   1.00
C2       0.25118    0.25087    1.10517   1.00
C3       0.26633    0.27985    0.91566   1.00
C3       0.27706    0.22738    1.08359   1.00
C3       0.23242    0.21842    0.91680   1.00
C3       0.22447    0.27375    1.08415   1.00
H1       0.28052    0.30482    0.97192   1.00
H1       0.29710    0.20854    1.02685   1.00
H1       0.27945    0.30373    0.89968   1.00
H1       0.29795    0.20933    1.09895   1.00
H1       0.21862    0.19429    0.90179   1.00
H1       0.20414    0.29162    1.10043   1.00
C5       0.19281    0.29831    1.02239   1.00
H1       0.21933    0.19527    0.97401   1.00
H2       0.17750    0.31755    1.04354   1.00
H2       0.20734    0.31790    1.00103   1.00
N1       0.16388    0.27366    1.00292   1.00
C6       0.14080    0.24691    1.02012   1.00
C6       0.15521    0.27386    0.96460   1.00
C6       0.11734    0.22954    0.99243   1.00
C6       0.12653    0.24667    0.95711   1.00
H3       0.14109    0.24016    1.05099   1.00
H3       0.16920    0.29231    0.94309   1.00
H3       0.09591    0.20693    0.99741   1.00
H3       0.11378    0.24006    0.92903   1.00
C4       0.25002    0.47915    0.75010   1.00
C4       0.24998    0.52085    0.74990   1.00
C3       0.28047    0.45708    0.76692   1.00
C3       0.22688    0.54225    0.77647   1.00
C3       0.21888    0.45816    0.73310   1.00
C3a      0.27358    0.54263    0.72332   1.00
C2       0.24887    0.39483    0.74901   1.00
C2       0.25087    0.60517    0.75118   1.00
C3       0.27985    0.41566    0.76633   1.00
C3       0.22738    0.58359    0.77706   1.00
C3       0.21842    0.41680    0.73242   1.00
C3       0.27375    0.58415    0.72447   1.00
H1       0.30482    0.47192    0.78052   1.00
H1       0.20854    0.52685    0.79710   1.00
H1       0.30373    0.39968    0.77945   1.00
H1       0.20933    0.59895    0.79795   1.00
H1       0.19429    0.40179    0.71862   1.00
H1       0.29162    0.60043    0.70414   1.00
C5       0.29831    0.52239    0.69281   1.00
H1       0.19527    0.47401    0.71933   1.00
H2       0.31755    0.54354    0.67750   1.00
H2       0.31790    0.50103    0.70734   1.00
N1       0.27366    0.50292    0.66388   1.00
C6       0.24691    0.52012    0.64080   1.00
C6       0.27386    0.46460    0.65521   1.00
C6       0.22954    0.49243    0.61734   1.00
C6       0.24667    0.45711    0.62653   1.00
H3       0.24016    0.55099    0.64109   1.00
H3       0.29231    0.44309    0.66920   1.00
H3       0.20693    0.49741    0.59591   1.00
H3       0.24006    0.42903    0.61378   1.00
C4       0.02085    0.25010    0.74998   1.00
C4       -0.02085   0.24990    0.75002   1.00
C3       0.04292    0.26692    0.71953   1.00
C3       -0.04225   0.27647    0.77312   1.00
C3       0.04184    0.23310    0.78112   1.00
C3a      -0.04263   0.22332    0.72642   1.00
C2       0.10517    0.24901    0.75113   1.00
C2       -0.10517   0.25118    0.74913   1.00
C3       0.08434    0.26633    0.72015   1.00
C3       -0.08359   0.27706    0.77262   1.00
C3       0.08320    0.23242    0.78158   1.00
C3       -0.08415   0.22447    0.72625   1.00
H1       0.02808    0.28052    0.69518   1.00
H1       -0.02685   0.29710    0.79146   1.00
H1       0.10032    0.27945    0.69627   1.00
H1       -0.09895   0.29795    0.79067   1.00
H1       0.09821    0.21862    0.80571   1.00
H1       -0.10043   0.20414    0.70838   1.00
C5       -0.02239   0.19281    0.70169   1.00
H1       0.02599    0.21933    0.80473   1.00
H2       -0.04354   0.17750    0.68245   1.00
H2       -0.00103   0.20734    0.68210   1.00
N1       -0.00292   0.16388    0.72634   1.00
C6       -0.02012   0.14080    0.75309   1.00
C6       0.03540    0.15521    0.72614   1.00
C6       0.00757    0.11734    0.77046   1.00
C6       0.04289    0.12653    0.75333   1.00
H3       -0.05099   0.14109    0.75984   1.00
H3       0.05691    0.16920    0.70769   1.00
H3       0.00259    0.09591    0.79307   1.00
H3       0.07097    0.11378    0.75994   1.00
C4       0.47915    0.25010    0.75002   1.00
C4       0.52085    0.24990    0.74998   1.00
C3       0.45708    0.26692    0.78047   1.00
C3       0.54225    0.27647    0.72688   1.00
C3       0.45816    0.23310    0.71888   1.00
C3a      0.54263    0.22332    0.77358   1.00
C2       0.39483    0.24901    0.74887   1.00
C2       0.60517    0.25118    0.75087   1.00
C3       0.41566    0.26633    0.77985   1.00
C3       0.58359    0.27706    0.72738   1.00
C3       0.41680    0.23242    0.71842   1.00
C3       0.58415    0.22447    0.77375   1.00
H1       0.47192    0.28052    0.80482   1.00
H1       0.52685    0.29710    0.70854   1.00
H1       0.39968    0.27945    0.80373   1.00
H1       0.59895    0.29795    0.70933   1.00
H1       0.40179    0.21862    0.69429   1.00
H1       0.60043    0.20414    0.79162   1.00
C5       0.52239    0.19281    0.79831   1.00
H1       0.47401    0.21933    0.69527   1.00
H2       0.54354    0.17750    0.81755   1.00
H2       0.50103    0.20734    0.81790   1.00
N1       0.50292    0.16388    0.77366   1.00
C6       0.52012    0.14080    0.74691   1.00
C6       0.46460    0.15521    0.77386   1.00
C6       0.49243    0.11734    0.72954   1.00
C6       0.45711    0.12653    0.74667   1.00
H3       0.55099    0.14109    0.74016   1.00
H3       0.44309    0.16920    0.79231   1.00
H3       0.49741    0.09591    0.70693   1.00
H3       0.42903    0.11378    0.74006   1.00
C4       0.24998    0.02085    0.75010   1.00
C4       0.25002    -0.02085   0.74990   1.00
C3       0.21953    0.04292    0.76692   1.00
C3       0.27312    -0.04225   0.77647   1.00
C3       0.28112    0.04184    0.73310   1.00
C3a      0.22642    -0.04263   0.72332   1.00
C2       0.25113    0.10517    0.74901   1.00
C2       0.24913    -0.10517   0.75118   1.00
C3       0.22015    0.08434    0.76633   1.00
C3       0.27262    -0.08359   0.77706   1.00
C3       0.28158    0.08320    0.73242   1.00
C3       0.22625    -0.08415   0.72447   1.00
H1       0.19518    0.02808    0.78052   1.00
H1       0.29146    -0.02685   0.79710   1.00
H1       0.19627    0.10032    0.77945   1.00
H1       0.29067    -0.09895   0.79795   1.00
H1       0.30571    0.09821    0.71862   1.00
H1       0.20838    -0.10043   0.70414   1.00
C5       0.20169    -0.02239   0.69281   1.00
H1       0.30473    0.02599    0.71933   1.00
H2       0.18245    -0.04354   0.67750   1.00
H2       0.18210    -0.00103   0.70734   1.00
N1       0.22634    -0.00292   0.66388   1.00
C6       0.25309    -0.02012   0.64080   1.00
C6       0.22614    0.03540    0.65521   1.00
C6       0.27046    0.00757    0.61734   1.00
C6       0.25333    0.04289    0.62653   1.00
H3       0.25984    -0.05099   0.64109   1.00
H3       0.20769    0.05691    0.66920   1.00
H3       0.29307    0.00259    0.59591   1.00
H3       0.25994    0.07097    0.61378   1.00
C4       0.25010    0.24998    0.52085   1.00
C4       0.24990    0.25002    0.47915   1.00
C3       0.26692    0.21953    0.54292   1.00
C3       0.27647    0.27312    0.45775   1.00
C3       0.23310    0.28112    0.54184   1.00
C3a      0.22332    0.22642    0.45737   1.00
C2       0.24901    0.25113    0.60517   1.00
C2       0.25118    0.24913    0.39483   1.00
C3       0.26633    0.22015    0.58434   1.00
C3       0.27706    0.27262    0.41641   1.00
C3       0.23242    0.28158    0.58320   1.00
C3       0.22447    0.22625    0.41585   1.00
H1       0.28052    0.19518    0.52808   1.00
H1       0.29710    0.29146    0.47315   1.00
H1       0.27945    0.19627    0.60032   1.00
H1       0.29795    0.29067    0.40105   1.00
H1       0.21862    0.30571    0.59821   1.00
H1       0.20414    0.20838    0.39957   1.00
C5       0.19281    0.20169    0.47761   1.00
H1       0.21933    0.30473    0.52599   1.00
H2       0.17750    0.18245    0.45646   1.00
H2       0.20734    0.18210    0.49897   1.00
N1       0.16388    0.22634    0.49708   1.00
C6       0.14080    0.25309    0.47988   1.00
C6       0.15521    0.22614    0.53540   1.00
C6       0.11734    0.27046    0.50757   1.00
C6       0.12653    0.25333    0.54289   1.00
H3       0.14109    0.25984    0.44901   1.00
H3       0.16920    0.20769    0.55691   1.00
H3       0.09591    0.29307    0.50259   1.00
H3       0.11378    0.25994    0.57097   1.00
C4       0.25010    0.75002    0.47915   1.00
C4       0.24990    0.74998    0.52085   1.00
C3       0.26692    0.78047    0.45708   1.00
C3       0.27647    0.72688    0.54225   1.00
C3       0.23310    0.71888    0.45816   1.00
C3a      0.22332    0.77358    0.54263   1.00
C2       0.24901    0.74887    0.39483   1.00
C2       0.25118    0.75087    0.60517   1.00
C3       0.26633    0.77985    0.41566   1.00
C3       0.27706    0.72738    0.58359   1.00
C3       0.23242    0.71842    0.41680   1.00
C3       0.22447    0.77375    0.58415   1.00
H1       0.28052    0.80482    0.47192   1.00
H1       0.29710    0.70854    0.52685   1.00
H1       0.27945    0.80373    0.39968   1.00
H1       0.29795    0.70933    0.59895   1.00
H1       0.21862    0.69429    0.40179   1.00
H1       0.20414    0.79162    0.60043   1.00
C5       0.19281    0.79831    0.52239   1.00
H1       0.21933    0.69527    0.47401   1.00
H2       0.17750    0.81755    0.54354   1.00
H2       0.20734    0.81790    0.50103   1.00
N1       0.16388    0.77366    0.50292   1.00
C6       0.14080    0.74691    0.52012   1.00
C6       0.15521    0.77386    0.46460   1.00
C6       0.11734    0.72954    0.49243   1.00
C6       0.12653    0.74667    0.45711   1.00
H3       0.14109    0.74016    0.55099   1.00
H3       0.16920    0.79231    0.44309   1.00
H3       0.09591    0.70693    0.49741   1.00
H3       0.11378    0.74006    0.42903   1.00
C4       0.25002    0.97915    0.25010   1.00
C4       0.24998    1.02085    0.24990   1.00
C3       0.28047    0.95708    0.26692   1.00
C3       0.22688    1.04225    0.27647   1.00
C3       0.21888    0.95816    0.23310   1.00
C3a      0.27358    1.04263    0.22332   1.00
C2       0.24887    0.89483    0.24901   1.00
C2       0.25087    1.10517    0.25118   1.00
C3       0.27985    0.91566    0.26633   1.00
C3       0.22738    1.08359    0.27706   1.00
C3       0.21842    0.91680    0.23242   1.00
C3       0.27375    1.08415    0.22447   1.00
H1       0.30482    0.97192    0.28052   1.00
H1       0.20854    1.02685    0.29710   1.00
H1       0.30373    0.89968    0.27945   1.00
H1       0.20933    1.09895    0.29795   1.00
H1       0.19429    0.90179    0.21862   1.00
H1       0.29162    1.10043    0.20414   1.00
C5       0.29831    1.02239    0.19281   1.00
H1       0.19527    0.97401    0.21933   1.00
H2       0.31755    1.04354    0.17750   1.00
H2       0.31790    1.00103    0.20734   1.00
N1       0.27366    1.00292    0.16388   1.00
C6       0.24691    1.02012    0.14080   1.00
C6       0.27386    0.96460    0.15521   1.00
C6       0.22954    0.99243    0.11734   1.00
C6       0.24667    0.95711    0.12653   1.00
H3       0.24016    1.05099    0.14109   1.00
H3       0.29231    0.94309    0.16920   1.00
H3       0.20693    0.99741    0.09591   1.00
H3       0.24006    0.92903    0.11378   1.00
C4       0.02085    0.75010    0.24998   1.00
C4       -0.02085   0.74990    0.25002   1.00
C3       0.04292    0.76692    0.21953   1.00
C3       -0.04225   0.77647    0.27312   1.00
C3       0.04184    0.73310    0.28112   1.00
C3a      -0.04263   0.72332    0.22642   1.00
C2       0.10517    0.74901    0.25113   1.00
C2       -0.10517   0.75118    0.24913   1.00
C3       0.08434    0.76633    0.22015   1.00
C3       -0.08359   0.77706    0.27262   1.00
C3       0.08320    0.73242    0.28158   1.00
C3       -0.08415   0.72447    0.22625   1.00
H1       0.02808    0.78052    0.19518   1.00
H1       -0.02685   0.79710    0.29146   1.00
H1       0.10032    0.77945    0.19627   1.00
H1       -0.09895   0.79795    0.29067   1.00
H1       0.09821    0.71862    0.30571   1.00
H1       -0.10043   0.70414    0.20838   1.00
C5       -0.02239   0.69281    0.20169   1.00
H1       0.02599    0.71933    0.30473   1.00
H2       -0.04354   0.67750    0.18245   1.00
H2       -0.00103   0.70734    0.18210   1.00
N1       -0.00292   0.66388    0.22634   1.00
C6       -0.02012   0.64080    0.25309   1.00
C6       0.03540    0.65521    0.22614   1.00
C6       0.00757    0.61734    0.27046   1.00
C6       0.04289    0.62653    0.25333   1.00
H3       -0.05099   0.64109    0.25984   1.00
H3       0.05691    0.66920    0.20769   1.00
H3       0.00259    0.59591    0.29307   1.00
H3       0.07097    0.61378    0.25994   1.00
C4       0.47915    0.75010    0.25002   1.00
C4       0.52085    0.74990    0.24998   1.00
C3       0.45708    0.76692    0.28047   1.00
C3       0.54225    0.77647    0.22688   1.00
C3       0.45816    0.73310    0.21888   1.00
C3a      0.54263    0.72332    0.27358   1.00
C2       0.39483    0.74901    0.24887   1.00
C2       0.60517    0.75118    0.25087   1.00
C3       0.41566    0.76633    0.27985   1.00
C3       0.58359    0.77706    0.22738   1.00
C3       0.41680    0.73242    0.21842   1.00
C3       0.58415    0.72447    0.27375   1.00
H1       0.47192    0.78052    0.30482   1.00
H1       0.52685    0.79710    0.20854   1.00
H1       0.39968    0.77945    0.30373   1.00
H1       0.59895    0.79795    0.20933   1.00
H1       0.40179    0.71862    0.19429   1.00
H1       0.60043    0.70414    0.29162   1.00
C5       0.52239    0.69281    0.29831   1.00
H1       0.47401    0.71933    0.19527   1.00
H2       0.54354    0.67750    0.31755   1.00
H2       0.50103    0.70734    0.31790   1.00
N1       0.50292    0.66388    0.27366   1.00
C6       0.52012    0.64080    0.24691   1.00
C6       0.46460    0.65521    0.27386   1.00
C6       0.49243    0.61734    0.22954   1.00
C6       0.45711    0.62653    0.24667   1.00
H3       0.55099    0.64109    0.24016   1.00
H3       0.44309    0.66920    0.29231   1.00
H3       0.49741    0.59591    0.20693   1.00
H3       0.42903    0.61378    0.24006   1.00
C4       0.24998    0.52085    0.25010   1.00
C4       0.25002    0.47915    0.24990   1.00
C3       0.21953    0.54292    0.26692   1.00
C3       0.27312    0.45775    0.27647   1.00
C3       0.28112    0.54184    0.23310   1.00
C3a      0.22642    0.45737    0.22332   1.00
C2       0.25113    0.60517    0.24901   1.00
C2       0.24913    0.39483    0.25118   1.00
C3       0.22015    0.58434    0.26633   1.00
C3       0.27262    0.41641    0.27706   1.00
C3       0.28158    0.58320    0.23242   1.00
C3       0.22625    0.41585    0.22447   1.00
H1       0.19518    0.52808    0.28052   1.00
H1       0.29146    0.47315    0.29710   1.00
H1       0.19627    0.60032    0.27945   1.00
H1       0.29067    0.40105    0.29795   1.00
H1       0.30571    0.59821    0.21862   1.00
H1       0.20838    0.39957    0.20414   1.00
C5       0.20169    0.47761    0.19281   1.00
H1       0.30473    0.52599    0.21933   1.00
H2       0.18245    0.45646    0.17750   1.00
H2       0.18210    0.49897    0.20734   1.00
N1       0.22634    0.49708    0.16388   1.00
C6       0.25309    0.47988    0.14080   1.00
C6       0.22614    0.53540    0.15521   1.00
C6       0.27046    0.50757    0.11734   1.00
C6       0.25333    0.54289    0.12653   1.00
H3       0.25984    0.44901    0.14109   1.00
H3       0.20769    0.55691    0.16920   1.00
H3       0.29307    0.50259    0.09591   1.00
H3       0.25994    0.57097    0.11378   1.00
C4       0.25010    0.74998    0.02085   1.00
C4       0.24990    0.75002    -0.02085   1.00
C3       0.26692    0.71953    0.04292   1.00
C3       0.27647    0.77312    -0.04225   1.00
C3       0.23310    0.78112    0.04184   1.00
C3a      0.22332    0.72642    -0.04263   1.00
C2       0.24901    0.75113    0.10517   1.00
C2       0.25118    0.74913    -0.10517   1.00
C3       0.26633    0.72015    0.08434   1.00
C3       0.27706    0.77262    -0.08359   1.00
C3       0.23242    0.78158    0.08320   1.00
C3       0.22447    0.72625    -0.08415   1.00
H1       0.28052    0.69518    0.02808   1.00
H1       0.29710    0.79146    -0.02685   1.00
H1       0.27945    0.69627    0.10032   1.00
H1       0.29795    0.79067    -0.09895   1.00
H1       0.21862    0.80571    0.09821   1.00
H1       0.20414    0.70838    -0.10043   1.00
C5       0.19281    0.70169    -0.02239   1.00
H1       0.21933    0.80473    0.02599   1.00
H2       0.17750    0.68245    -0.04354   1.00
H2       0.20734    0.68210    -0.00103   1.00
N1       0.16388    0.72634    -0.00292   1.00
C6       0.14080    0.75309    -0.02012   1.00
C6       0.15521    0.72614    0.03540   1.00
C6       0.11734    0.77046    0.00757   1.00
C6       0.12653    0.75333    0.04289   1.00
H3       0.14109    0.75984    -0.05099   1.00
H3       0.16920    0.70769    0.05691   1.00
H3       0.09591    0.79307    0.00259   1.00
H3       0.11378    0.75994    0.07097   1.00
C4       0.75010    0.25002    0.47915   1.00
C4       0.74990    0.24998    0.52085   1.00
C3       0.76692    0.28047    0.45708   1.00
C3       0.77647    0.22688    0.54225   1.00
C3       0.73310    0.21888    0.45816   1.00
C3a      0.72332    0.27358    0.54263   1.00
C2       0.74901    0.24887    0.39483   1.00
C2       0.75118    0.25087    0.60517   1.00
C3       0.76633    0.27985    0.41566   1.00
C3       0.77706    0.22738    0.58359   1.00
C3       0.73242    0.21842    0.41680   1.00
C3       0.72447    0.27375    0.58415   1.00
H1       0.78052    0.30482    0.47192   1.00
H1       0.79710    0.20854    0.52685   1.00
H1       0.77945    0.30373    0.39968   1.00
H1       0.79795    0.20933    0.59895   1.00
H1       0.71862    0.19429    0.40179   1.00
H1       0.70414    0.29162    0.60043   1.00
C5       0.69281    0.29831    0.52239   1.00
H1       0.71933    0.19527    0.47401   1.00
H2       0.67750    0.31755    0.54354   1.00
H2       0.70734    0.31790    0.50103   1.00
N1       0.66388    0.27366    0.50292   1.00
C6       0.64080    0.24691    0.52012   1.00
C6       0.65521    0.27386    0.46460   1.00
C6       0.61734    0.22954    0.49243   1.00
C6       0.62653    0.24667    0.45711   1.00
H3       0.64109    0.24016    0.55099   1.00
H3       0.66920    0.29231    0.44309   1.00
H3       0.59591    0.20693    0.49741   1.00
H3       0.61378    0.24006    0.42903   1.00
C4       0.75002    0.47915    0.25010   1.00
C4       0.74998    0.52085    0.24990   1.00
C3       0.78047    0.45708    0.26692   1.00
C3       0.72688    0.54225    0.27647   1.00
C3       0.71888    0.45816    0.23310   1.00
C3a      0.77358    0.54263    0.22332   1.00
C2       0.74887    0.39483    0.24901   1.00
C2       0.75087    0.60517    0.25118   1.00
C3       0.77985    0.41566    0.26633   1.00
C3       0.72738    0.58359    0.27706   1.00
C3       0.71842    0.41680    0.23242   1.00
C3       0.77375    0.58415    0.22447   1.00
H1       0.80482    0.47192    0.28052   1.00
H1       0.70854    0.52685    0.29710   1.00
H1       0.80373    0.39968    0.27945   1.00
H1       0.70933    0.59895    0.29795   1.00
H1       0.69429    0.40179    0.21862   1.00
H1       0.79162    0.60043    0.20414   1.00
C5       0.79831    0.52239    0.19281   1.00
H1       0.69527    0.47401    0.21933   1.00
H2       0.81755    0.54354    0.17750   1.00
H2       0.81790    0.50103    0.20734   1.00
N1       0.77366    0.50292    0.16388   1.00
C6       0.74691    0.52012    0.14080   1.00
C6       0.77386    0.46460    0.15521   1.00
C6       0.72954    0.49243    0.11734   1.00
C6       0.74667    0.45711    0.12653   1.00
H3       0.74016    0.55099    0.14109   1.00
H3       0.79231    0.44309    0.16920   1.00
H3       0.70693    0.49741    0.09591   1.00
H3       0.74006    0.42903    0.11378   1.00
C4       0.52085    0.25010    0.24998   1.00
C4       0.47915    0.24990    0.25002   1.00
C3       0.54292    0.26692    0.21953   1.00
C3       0.45775    0.27647    0.27312   1.00
C3       0.54184    0.23310    0.28112   1.00
C3a      0.45737    0.22332    0.22642   1.00
C2       0.60517    0.24901    0.25113   1.00
C2       0.39483    0.25118    0.24913   1.00
C3       0.58434    0.26633    0.22015   1.00
C3       0.41641    0.27706    0.27262   1.00
C3       0.58320    0.23242    0.28158   1.00
C3       0.41585    0.22447    0.22625   1.00
H1       0.52808    0.28052    0.19518   1.00
H1       0.47315    0.29710    0.29146   1.00
H1       0.60032    0.27945    0.19627   1.00
H1       0.40105    0.29795    0.29067   1.00
H1       0.59821    0.21862    0.30571   1.00
H1       0.39957    0.20414    0.20838   1.00
C5       0.47761    0.19281    0.20169   1.00
H1       0.52599    0.21933    0.30473   1.00
H2       0.45646    0.17750    0.18245   1.00
H2       0.49897    0.20734    0.18210   1.00
N1       0.49708    0.16388    0.22634   1.00
C6       0.47988    0.14080    0.25309   1.00
C6       0.53540    0.15521    0.22614   1.00
C6       0.50757    0.11734    0.27046   1.00
C6       0.54289    0.12653    0.25333   1.00
H3       0.44901    0.14109    0.25984   1.00
H3       0.55691    0.16920    0.20769   1.00
H3       0.50259    0.09591    0.29307   1.00
H3       0.57097    0.11378    0.25994   1.00
C4       0.97915    0.25010    0.25002   1.00
C4       1.02085    0.24990    0.24998   1.00
C3       0.95708    0.26692    0.28047   1.00
C3       1.04225    0.27647    0.22688   1.00
C3       0.95816    0.23310    0.21888   1.00
C3a      1.04263    0.22332    0.27358   1.00
C2       0.89483    0.24901    0.24887   1.00
C2       1.10517    0.25118    0.25087   1.00
C3       0.91566    0.26633    0.27985   1.00
C3       1.08359    0.27706    0.22738   1.00
C3       0.91680    0.23242    0.21842   1.00
C3       1.08415    0.22447    0.27375   1.00
H1       0.97192    0.28052    0.30482   1.00
H1       1.02685    0.29710    0.20854   1.00
H1       0.89968    0.27945    0.30373   1.00
H1       1.09895    0.29795    0.20933   1.00
H1       0.90179    0.21862    0.19429   1.00
H1       1.10043    0.20414    0.29162   1.00
C5       1.02239    0.19281    0.29831   1.00
H1       0.97401    0.21933    0.19527   1.00
H2       1.04354    0.17750    0.31755   1.00
H2       1.00103    0.20734    0.31790   1.00
N1       1.00292    0.16388    0.27366   1.00
C6       1.02012    0.14080    0.24691   1.00
C6       0.96460    0.15521    0.27386   1.00
C6       0.99243    0.11734    0.22954   1.00
C6       0.95711    0.12653    0.24667   1.00
H3       1.05099    0.14109    0.24016   1.00
H3       0.94309    0.16920    0.29231   1.00
H3       0.99741    0.09591    0.20693   1.00
H3       0.92903    0.11378    0.24006   1.00
C4       0.74998    0.02085    0.25010   1.00
C4       0.75002    -0.02085   0.24990   1.00
C3       0.71953    0.04292    0.26692   1.00
C3       0.77312    -0.04225   0.27647   1.00
C3       0.78112    0.04184    0.23310   1.00
C3a      0.72642    -0.04263   0.22332   1.00
C2       0.75113    0.10517    0.24901   1.00
C2       0.74913    -0.10517   0.25118   1.00
C3       0.72015    0.08434    0.26633   1.00
C3       0.77262    -0.08359   0.27706   1.00
C3       0.78158    0.08320    0.23242   1.00
C3       0.72625    -0.08415   0.22447   1.00
H1       0.69518    0.02808    0.28052   1.00
H1       0.79146    -0.02685   0.29710   1.00
H1       0.69627    0.10032    0.27945   1.00
H1       0.79067    -0.09895   0.29795   1.00
H1       0.80571    0.09821    0.21862   1.00
H1       0.70838    -0.10043   0.20414   1.00
C5       0.70169    -0.02239   0.19281   1.00
H1       0.80473    0.02599    0.21933   1.00
H2       0.68245    -0.04354   0.17750   1.00
H2       0.68210    -0.00103   0.20734   1.00
N1       0.72634    -0.00292   0.16388   1.00
C6       0.75309    -0.02012   0.14080   1.00
C6       0.72614    0.03540    0.15521   1.00
C6       0.77046    0.00757    0.11734   1.00
C6       0.75333    0.04289    0.12653   1.00
H3       0.75984    -0.05099   0.14109   1.00
H3       0.70769    0.05691    0.16920   1.00
H3       0.79307    0.00259    0.09591   1.00
H3       0.75994    0.07097    0.11378   1.00
C4       0.75010    0.24998    0.02085   1.00
C4       0.74990    0.25002    -0.02085   1.00
C3       0.76692    0.21953    0.04292   1.00
C3       0.77647    0.27312    -0.04225   1.00
C3       0.73310    0.28112    0.04184   1.00
C3a      0.72332    0.22642    -0.04263   1.00
C2       0.74901    0.25113    0.10517   1.00
C2       0.75118    0.24913    -0.10517   1.00
C3       0.76633    0.22015    0.08434   1.00
C3       0.77706    0.27262    -0.08359   1.00
C3       0.73242    0.28158    0.08320   1.00
C3       0.72447    0.22625    -0.08415   1.00
H1       0.78052    0.19518    0.02808   1.00
H1       0.79710    0.29146    -0.02685   1.00
H1       0.77945    0.19627    0.10032   1.00
H1       0.79795    0.29067    -0.09895   1.00
H1       0.71862    0.30571    0.09821   1.00
H1       0.70414    0.20838    -0.10043   1.00
C5       0.69281    0.20169    -0.02239   1.00
H1       0.71933    0.30473    0.02599   1.00
H2       0.67750    0.18245    -0.04354   1.00
H2       0.70734    0.18210    -0.00103   1.00
N1       0.66388    0.22634    -0.00292   1.00
C6       0.64080    0.25309    -0.02012   1.00
C6       0.65521    0.22614    0.03540   1.00
C6       0.61734    0.27046    0.00757   1.00
C6       0.62653    0.25333    0.04289   1.00
H3       0.64109    0.25984    -0.05099   1.00
H3       0.66920    0.20769    0.05691   1.00
H3       0.59591    0.29307    0.00259   1.00
H3       0.61378    0.25994    0.07097   1.00
C4       1.00010    1.00002    1.22915   1.00
C4       0.99990    0.99998    1.27085   1.00
C3       1.01692    1.03047    1.20708   1.00
C3       1.02647    0.97688    1.29225   1.00
C3       0.98310    0.96888    1.20816   1.00
C3a      0.97332    1.02358    1.29263   1.00
C2       0.99901    0.99887    1.14483   1.00
C2       1.00118    1.00087    1.35517   1.00
C3       1.01633    1.02985    1.16566   1.00
C3       1.02706    0.97738    1.33359   1.00
C3       0.98242    0.96842    1.16680   1.00
C3       0.97447    1.02375    1.33415   1.00
H1       1.03052    1.05482    1.22192   1.00
H1       1.04710    0.95854    1.27685   1.00
H1       1.02945    1.05373    1.14968   1.00
H1       1.04795    0.95933    1.34895   1.00
H1       0.96862    0.94429    1.15179   1.00
H1       0.95414    1.04162    1.35043   1.00
C5       0.94281    1.04831    1.27239   1.00
H1       0.96933    0.94527    1.22401   1.00
H2       0.92750    1.06755    1.29354   1.00
H2       0.95734    1.06790    1.25103   1.00
N1       0.91388    1.02366    1.25292   1.00
C6       0.89080    0.99691    1.27012   1.00
C6       0.90521    1.02386    1.21460   1.00
C6       0.86734    0.97954    1.24243   1.00
C6       0.87653    0.99667    1.20711   1.00
H3       0.89109    0.99016    1.30099   1.00
H3       0.91920    1.04231    1.19309   1.00
H3       0.84591    0.95693    1.24741   1.00
H3       0.86378    0.99006    1.17903   1.00
C4       1.00002    1.22915    1.00010   1.00
C4       0.99998    1.27085    0.99990   1.00
C3       1.03047    1.20708    1.01692   1.00
C3       0.97688    1.29225    1.02647   1.00
C3       0.96888    1.20816    0.98310   1.00
C3a      1.02358    1.29263    0.97332   1.00
C2       0.99887    1.14483    0.99901   1.00
C2       1.00087    1.35517    1.00118   1.00
C3       1.02985    1.16566    1.01633   1.00
C3       0.97738    1.33359    1.02706   1.00
C3       0.96842    1.16680    0.98242   1.00
C3       1.02375    1.33415    0.97447   1.00
H1       1.05482    1.22192    1.03052   1.00
H1       0.95854    1.27685    1.04710   1.00
H1       1.05373    1.14968    1.02945   1.00
H1       0.95933    1.34895    1.04795   1.00
H1       0.94429    1.15179    0.96862   1.00
H1       1.04162    1.35043    0.95414   1.00
C5       1.04831    1.27239    0.94281   1.00
H1       0.94527    1.22401    0.96933   1.00
H2       1.06755    1.29354    0.92750   1.00
H2       1.06790    1.25103    0.95734   1.00
N1       1.02366    1.25292    0.91388   1.00
C6       0.99691    1.27012    0.89080   1.00
C6       1.02386    1.21460    0.90521   1.00
C6       0.97954    1.24243    0.86734   1.00
C6       0.99667    1.20711    0.87653   1.00
H3       0.99016    1.30099    0.89109   1.00
H3       1.04231    1.19309    0.91920   1.00
H3       0.95693    1.24741    0.84591   1.00
H3       0.99006    1.17903    0.86378   1.00
C4       0.77085    1.00010    0.99998   1.00
C4       0.72915    0.99990    1.00002   1.00
C3       0.79292    1.01692    0.96953   1.00
C3       0.70775    1.02647    1.02312   1.00
C3       0.79184    0.98310    1.03112   1.00
C3a      0.70737    0.97332    0.97642   1.00
C2       0.85517    0.99901    1.00113   1.00
C2       0.64483    1.00118    0.99913   1.00
C3       0.83434    1.01633    0.97015   1.00
C3       0.66641    1.02706    1.02262   1.00
C3       0.83320    0.98242    1.03158   1.00
C3       0.66585    0.97447    0.97625   1.00
H1       0.77808    1.03052    0.94518   1.00
H1       0.72315    1.04710    1.04146   1.00
H1       0.85032    1.02945    0.94627   1.00
H1       0.65105    1.04795    1.04067   1.00
H1       0.84821    0.96862    1.05571   1.00
H1       0.64957    0.95414    0.95838   1.00
C5       0.72761    0.94281    0.95169   1.00
H1       0.77599    0.96933    1.05473   1.00
H2       0.70646    0.92750    0.93245   1.00
H2       0.74897    0.95734    0.93210   1.00
N1       0.74708    0.91388    0.97634   1.00
C6       0.72988    0.89080    1.00309   1.00
C6       0.78540    0.90521    0.97614   1.00
C6       0.75757    0.86734    1.02046   1.00
C6       0.79289    0.87653    1.00333   1.00
H3       0.69901    0.89109    1.00984   1.00
H3       0.80691    0.91920    0.95769   1.00
H3       0.75259    0.84591    1.04307   1.00
H3       0.82097    0.86378    1.00994   1.00
C4       1.22915    1.00010    1.00002   1.00
C4       1.27085    0.99990    0.99998   1.00
C3       1.20708    1.01692    1.03047   1.00
C3       1.29225    1.02647    0.97688   1.00
C3       1.20816    0.98310    0.96888   1.00
C3a      1.29263    0.97332    1.02358   1.00
C2       1.14483    0.99901    0.99887   1.00
C2       1.35517    1.00118    1.00087   1.00
C3       1.16566    1.01633    1.02985   1.00
C3       1.33359    1.02706    0.97738   1.00
C3       1.16680    0.98242    0.96842   1.00
C3       1.33415    0.97447    1.02375   1.00
H1       1.22192    1.03052    1.05482   1.00
H1       1.27685    1.04710    0.95854   1.00
H1       1.14968    1.02945    1.05373   1.00
H1       1.34895    1.04795    0.95933   1.00
H1       1.15179    0.96862    0.94429   1.00
H1       1.35043    0.95414    1.04162   1.00
C5       1.27239    0.94281    1.04831   1.00
H1       1.22401    0.96933    0.94527   1.00
H2       1.29354    0.92750    1.06755   1.00
H2       1.25103    0.95734    1.06790   1.00
N1       1.25292    0.91388    1.02366   1.00
C6       1.27012    0.89080    0.99691   1.00
C6       1.21460    0.90521    1.02386   1.00
C6       1.24243    0.86734    0.97954   1.00
C6       1.20711    0.87653    0.99667   1.00
H3       1.30099    0.89109    0.99016   1.00
H3       1.19309    0.91920    1.04231   1.00
H3       1.24741    0.84591    0.95693   1.00
H3       1.17903    0.86378    0.99006   1.00
C4       0.99998    0.77085    1.00010   1.00
C4       1.00002    0.72915    0.99990   1.00
C3       0.96953    0.79292    1.01692   1.00
C3       1.02312    0.70775    1.02647   1.00
C3       1.03112    0.79184    0.98310   1.00
C3a      0.97642    0.70737    0.97332   1.00
C2       1.00113    0.85517    0.99901   1.00
C2       0.99913    0.64483    1.00118   1.00
C3       0.97015    0.83434    1.01633   1.00
C3       1.02262    0.66641    1.02706   1.00
C3       1.03158    0.83320    0.98242   1.00
C3       0.97625    0.66585    0.97447   1.00
H1       0.94518    0.77808    1.03052   1.00
H1       1.04146    0.72315    1.04710   1.00
H1       0.94627    0.85032    1.02945   1.00
H1       1.04067    0.65105    1.04795   1.00
H1       1.05571    0.84821    0.96862   1.00
H1       0.95838    0.64957    0.95414   1.00
C5       0.95169    0.72761    0.94281   1.00
H1       1.05473    0.77599    0.96933   1.00
H2       0.93245    0.70646    0.92750   1.00
H2       0.93210    0.74897    0.95734   1.00
N1       0.97634    0.74708    0.91388   1.00
C6       1.00309    0.72988    0.89080   1.00
C6       0.97614    0.78540    0.90521   1.00
C6       1.02046    0.75757    0.86734   1.00
C6       1.00333    0.79289    0.87653   1.00
H3       1.00984    0.69901    0.89109   1.00
H3       0.95769    0.80691    0.91920   1.00
H3       1.04307    0.75259    0.84591   1.00
H3       1.00994    0.82097    0.86378   1.00
C4       1.00010    0.99998    0.77085   1.00
C4       0.99990    1.00002    0.72915   1.00
C3       1.01692    0.96953    0.79292   1.00
C3       1.02647    1.02312    0.70775   1.00
C3       0.98310    1.03112    0.79184   1.00
C3a      0.97332    0.97642    0.70737   1.00
C2       0.99901    1.00113    0.85517   1.00
C2       1.00118    0.99913    0.64483   1.00
C3       1.01633    0.97015    0.83434   1.00
C3       1.02706    1.02262    0.66641   1.00
C3       0.98242    1.03158    0.83320   1.00
C3       0.97447    0.97625    0.66585   1.00
H1       1.03052    0.94518    0.77808   1.00
H1       1.04710    1.04146    0.72315   1.00
H1       1.02945    0.94627    0.85032   1.00
H1       1.04795    1.04067    0.65105   1.00
H1       0.96862    1.05571    0.84821   1.00
H1       0.95414    0.95838    0.64957   1.00
C5       0.94281    0.95169    0.72761   1.00
H1       0.96933    1.05473    0.77599   1.00
H2       0.92750    0.93245    0.70646   1.00
H2       0.95734    0.93210    0.74897   1.00
N1       0.91388    0.97634    0.74708   1.00
C6       0.89080    1.00309    0.72988   1.00
C6       0.90521    0.97614    0.78540   1.00
C6       0.86734    1.02046    0.75757   1.00
C6       0.87653    1.00333    0.79289   1.00
H3       0.89109    1.00984    0.69901   1.00
H3       0.91920    0.95769    0.80691   1.00
H3       0.84591    1.04307    0.75259   1.00
H3       0.86378    1.00994    0.82097   1.00
C4       0.50010    0.50002    1.22915   1.00
C4       0.49990    0.49998    1.27085   1.00
C3       0.51692    0.53047    1.20708   1.00
C3       0.52647    0.47688    1.29225   1.00
C3       0.48310    0.46888    1.20816   1.00
C3a      0.47332    0.52358    1.29263   1.00
C2       0.49901    0.49887    1.14483   1.00
C2       0.50118    0.50087    1.35517   1.00
C3       0.51633    0.52985    1.16566   1.00
C3       0.52706    0.47738    1.33359   1.00
C3       0.48242    0.46842    1.16680   1.00
C3       0.47447    0.52375    1.33415   1.00
H1       0.53052    0.55482    1.22192   1.00
H1       0.54710    0.45854    1.27685   1.00
H1       0.52945    0.55373    1.14968   1.00
H1       0.54795    0.45933    1.34895   1.00
H1       0.46862    0.44429    1.15179   1.00
H1       0.45414    0.54162    1.35043   1.00
C5       0.44281    0.54831    1.27239   1.00
H1       0.46933    0.44527    1.22401   1.00
H2       0.42750    0.56755    1.29354   1.00
H2       0.45734    0.56790    1.25103   1.00
N1       0.41388    0.52366    1.25292   1.00
C6       0.39080    0.49691    1.27012   1.00
C6       0.40521    0.52386    1.21460   1.00
C6       0.36734    0.47954    1.24243   1.00
C6       0.37653    0.49667    1.20711   1.00
H3       0.39109    0.49016    1.30099   1.00
H3       0.41920    0.54231    1.19309   1.00
H3       0.34591    0.45693    1.24741   1.00
H3       0.36378    0.49006    1.17903   1.00
C4       0.50002    0.72915    1.00010   1.00
C4       0.49998    0.77085    0.99990   1.00
C3       0.53047    0.70708    1.01692   1.00
C3       0.47688    0.79225    1.02647   1.00
C3       0.46888    0.70816    0.98310   1.00
C3a      0.52358    0.79263    0.97332   1.00
C2       0.49887    0.64483    0.99901   1.00
C2       0.50087    0.85517    1.00118   1.00
C3       0.52985    0.66566    1.01633   1.00
C3       0.47738    0.83359    1.02706   1.00
C3       0.46842    0.66680    0.98242   1.00
C3       0.52375    0.83415    0.97447   1.00
H1       0.55482    0.72192    1.03052   1.00
H1       0.45854    0.77685    1.04710   1.00
H1       0.55373    0.64968    1.02945   1.00
H1       0.45933    0.84895    1.04795   1.00
H1       0.44429    0.65179    0.96862   1.00
H1       0.54162    0.85043    0.95414   1.00
C5       0.54831    0.77239    0.94281   1.00
H1       0.44527    0.72401    0.96933   1.00
H2       0.56755    0.79354    0.92750   1.00
H2       0.56790    0.75103    0.95734   1.00
N1       0.52366    0.75292    0.91388   1.00
C6       0.49691    0.77012    0.89080   1.00
C6       0.52386    0.71460    0.90521   1.00
C6       0.47954    0.74243    0.86734   1.00
C6       0.49667    0.70711    0.87653   1.00
H3       0.49016    0.80099    0.89109   1.00
H3       0.54231    0.69309    0.91920   1.00
H3       0.45693    0.74741    0.84591   1.00
H3       0.49006    0.67903    0.86378   1.00
C4       0.27085    0.50010    0.99998   1.00
C4       0.22915    0.49990    1.00002   1.00
C3       0.29292    0.51692    0.96953   1.00
C3       0.20775    0.52647    1.02312   1.00
C3       0.29184    0.48310    1.03112   1.00
C3a      0.20737    0.47332    0.97642   1.00
C2       0.35517    0.49901    1.00113   1.00
C2       0.14483    0.50118    0.99913   1.00
C3       0.33434    0.51633    0.97015   1.00
C3       0.16641    0.52706    1.02262   1.00
C3       0.33320    0.48242    1.03158   1.00
C3       0.16585    0.47447    0.97625   1.00
H1       0.27808    0.53052    0.94518   1.00
H1       0.22315    0.54710    1.04146   1.00
H1       0.35032    0.52945    0.94627   1.00
H1       0.15105    0.54795    1.04067   1.00
H1       0.34821    0.46862    1.05571   1.00
H1       0.14957    0.45414    0.95838   1.00
C5       0.22761    0.44281    0.95169   1.00
H1       0.27599    0.46933    1.05473   1.00
H2       0.20646    0.42750    0.93245   1.00
H2       0.24897    0.45734    0.93210   1.00
N1       0.24708    0.41388    0.97634   1.00
C6       0.22988    0.39080    1.00309   1.00
C6       0.28540    0.40521    0.97614   1.00
C6       0.25757    0.36734    1.02046   1.00
C6       0.29289    0.37653    1.00333   1.00
H3       0.19901    0.39109    1.00984   1.00
H3       0.30691    0.41920    0.95769   1.00
H3       0.25259    0.34591    1.04307   1.00
H3       0.32097    0.36378    1.00994   1.00
C4       0.72915    0.50010    1.00002   1.00
C4       0.77085    0.49990    0.99998   1.00
C3       0.70708    0.51692    1.03047   1.00
C3       0.79225    0.52647    0.97688   1.00
C3       0.70816    0.48310    0.96888   1.00
C3a      0.79263    0.47332    1.02358   1.00
C2       0.64483    0.49901    0.99887   1.00
C2       0.85517    0.50118    1.00087   1.00
C3       0.66566    0.51633    1.02985   1.00
C3       0.83359    0.52706    0.97738   1.00
C3       0.66680    0.48242    0.96842   1.00
C3       0.83415    0.47447    1.02375   1.00
H1       0.72192    0.53052    1.05482   1.00
H1       0.77685    0.54710    0.95854   1.00
H1       0.64968    0.52945    1.05373   1.00
H1       0.84895    0.54795    0.95933   1.00
H1       0.65179    0.46862    0.94429   1.00
H1       0.85043    0.45414    1.04162   1.00
C5       0.77239    0.44281    1.04831   1.00
H1       0.72401    0.46933    0.94527   1.00
H2       0.79354    0.42750    1.06755   1.00
H2       0.75103    0.45734    1.06790   1.00
N1       0.75292    0.41388    1.02366   1.00
C6       0.77012    0.39080    0.99691   1.00
C6       0.71460    0.40521    1.02386   1.00
C6       0.74243    0.36734    0.97954   1.00
C6       0.70711    0.37653    0.99667   1.00
H3       0.80099    0.39109    0.99016   1.00
H3       0.69309    0.41920    1.04231   1.00
H3       0.74741    0.34591    0.95693   1.00
H3       0.67903    0.36378    0.99006   1.00
C4       0.49998    0.27085    1.00010   1.00
C4       0.50002    0.22915    0.99990   1.00
C3       0.46953    0.29292    1.01692   1.00
C3       0.52312    0.20775    1.02647   1.00
C3       0.53112    0.29184    0.98310   1.00
C3a      0.47642    0.20737    0.97332   1.00
C2       0.50113    0.35517    0.99901   1.00
C2       0.49913    0.14483    1.00118   1.00
C3       0.47015    0.33434    1.01633   1.00
C3       0.52262    0.16641    1.02706   1.00
C3       0.53158    0.33320    0.98242   1.00
C3       0.47625    0.16585    0.97447   1.00
H1       0.44518    0.27808    1.03052   1.00
H1       0.54146    0.22315    1.04710   1.00
H1       0.44627    0.35032    1.02945   1.00
H1       0.54067    0.15105    1.04795   1.00
H1       0.55571    0.34821    0.96862   1.00
H1       0.45838    0.14957    0.95414   1.00
C5       0.45169    0.22761    0.94281   1.00
H1       0.55473    0.27599    0.96933   1.00
H2       0.43245    0.20646    0.92750   1.00
H2       0.43210    0.24897    0.95734   1.00
N1       0.47634    0.24708    0.91388   1.00
C6       0.50309    0.22988    0.89080   1.00
C6       0.47614    0.28540    0.90521   1.00
C6       0.52046    0.25757    0.86734   1.00
C6       0.50333    0.29289    0.87653   1.00
H3       0.50984    0.19901    0.89109   1.00
H3       0.45769    0.30691    0.91920   1.00
H3       0.54307    0.25259    0.84591   1.00
H3       0.50994    0.32097    0.86378   1.00
C4       0.50010    0.49998    0.77085   1.00
C4       0.49990    0.50002    0.72915   1.00
C3       0.51692    0.46953    0.79292   1.00
C3       0.52647    0.52312    0.70775   1.00
C3       0.48310    0.53112    0.79184   1.00
C3a      0.47332    0.47642    0.70737   1.00
C2       0.49901    0.50113    0.85517   1.00
C2       0.50118    0.49913    0.64483   1.00
C3       0.51633    0.47015    0.83434   1.00
C3       0.52706    0.52262    0.66641   1.00
C3       0.48242    0.53158    0.83320   1.00
C3       0.47447    0.47625    0.66585   1.00
H1       0.53052    0.44518    0.77808   1.00
H1       0.54710    0.54146    0.72315   1.00
H1       0.52945    0.44627    0.85032   1.00
H1       0.54795    0.54067    0.65105   1.00
H1       0.46862    0.55571    0.84821   1.00
H1       0.45414    0.45838    0.64957   1.00
C5       0.44281    0.45169    0.72761   1.00
H1       0.46933    0.55473    0.77599   1.00
H2       0.42750    0.43245    0.70646   1.00
H2       0.45734    0.43210    0.74897   1.00
N1       0.41388    0.47634    0.74708   1.00
C6       0.39080    0.50309    0.72988   1.00
C6       0.40521    0.47614    0.78540   1.00
C6       0.36734    0.52046    0.75757   1.00
C6       0.37653    0.50333    0.79289   1.00
H3       0.39109    0.50984    0.69901   1.00
H3       0.41920    0.45769    0.80691   1.00
H3       0.34591    0.54307    0.75259   1.00
H3       0.36378    0.50994    0.82097   1.00
C4       0.50010    1.00002    0.72915   1.00
C4       0.49990    0.99998    0.77085   1.00
C3       0.51692    1.03047    0.70708   1.00
C3       0.52647    0.97688    0.79225   1.00
C3       0.48310    0.96888    0.70816   1.00
C3a      0.47332    1.02358    0.79263   1.00
C2       0.49901    0.99887    0.64483   1.00
C2       0.50118    1.00087    0.85517   1.00
C3       0.51633    1.02985    0.66566   1.00
C3       0.52706    0.97738    0.83359   1.00
C3       0.48242    0.96842    0.66680   1.00
C3       0.47447    1.02375    0.83415   1.00
H1       0.53052    1.05482    0.72192   1.00
H1       0.54710    0.95854    0.77685   1.00
H1       0.52945    1.05373    0.64968   1.00
H1       0.54795    0.95933    0.84895   1.00
H1       0.46862    0.94429    0.65179   1.00
H1       0.45414    1.04162    0.85043   1.00
C5       0.44281    1.04831    0.77239   1.00
H1       0.46933    0.94527    0.72401   1.00
H2       0.42750    1.06755    0.79354   1.00
H2       0.45734    1.06790    0.75103   1.00
N1       0.41388    1.02366    0.75292   1.00
C6       0.39080    0.99691    0.77012   1.00
C6       0.40521    1.02386    0.71460   1.00
C6       0.36734    0.97954    0.74243   1.00
C6       0.37653    0.99667    0.70711   1.00
H3       0.39109    0.99016    0.80099   1.00
H3       0.41920    1.04231    0.69309   1.00
H3       0.34591    0.95693    0.74741   1.00
H3       0.36378    0.99006    0.67903   1.00
C4       0.50002    1.22915    0.50010   1.00
C4       0.49998    1.27085    0.49990   1.00
C3       0.53047    1.20708    0.51692   1.00
C3       0.47688    1.29225    0.52647   1.00
C3       0.46888    1.20816    0.48310   1.00
C3a      0.52358    1.29263    0.47332   1.00
C2       0.49887    1.14483    0.49901   1.00
C2       0.50087    1.35517    0.50118   1.00
C3       0.52985    1.16566    0.51633   1.00
C3       0.47738    1.33359    0.52706   1.00
C3       0.46842    1.16680    0.48242   1.00
C3       0.52375    1.33415    0.47447   1.00
H1       0.55482    1.22192    0.53052   1.00
H1       0.45854    1.27685    0.54710   1.00
H1       0.55373    1.14968    0.52945   1.00
H1       0.45933    1.34895    0.54795   1.00
H1       0.44429    1.15179    0.46862   1.00
H1       0.54162    1.35043    0.45414   1.00
C5       0.54831    1.27239    0.44281   1.00
H1       0.44527    1.22401    0.46933   1.00
H2       0.56755    1.29354    0.42750   1.00
H2       0.56790    1.25103    0.45734   1.00
N1       0.52366    1.25292    0.41388   1.00
C6       0.49691    1.27012    0.39080   1.00
C6       0.52386    1.21460    0.40521   1.00
C6       0.47954    1.24243    0.36734   1.00
C6       0.49667    1.20711    0.37653   1.00
H3       0.49016    1.30099    0.39109   1.00
H3       0.54231    1.19309    0.41920   1.00
H3       0.45693    1.24741    0.34591   1.00
H3       0.49006    1.17903    0.36378   1.00
C4       0.27085    1.00010    0.49998   1.00
C4       0.22915    0.99990    0.50002   1.00
C3       0.29292    1.01692    0.46953   1.00
C3       0.20775    1.02647    0.52312   1.00
C3       0.29184    0.98310    0.53112   1.00
C3a      0.20737    0.97332    0.47642   1.00
C2       0.35517    0.99901    0.50113   1.00
C2       0.14483    1.00118    0.49913   1.00
C3       0.33434    1.01633    0.47015   1.00
C3       0.16641    1.02706    0.52262   1.00
C3       0.33320    0.98242    0.53158   1.00
C3       0.16585    0.97447    0.47625   1.00
H1       0.27808    1.03052    0.44518   1.00
H1       0.22315    1.04710    0.54146   1.00
H1       0.35032    1.02945    0.44627   1.00
H1       0.15105    1.04795    0.54067   1.00
H1       0.34821    0.96862    0.55571   1.00
H1       0.14957    0.95414    0.45838   1.00
C5       0.22761    0.94281    0.45169   1.00
H1       0.27599    0.96933    0.55473   1.00
H2       0.20646    0.92750    0.43245   1.00
H2       0.24897    0.95734    0.43210   1.00
N1       0.24708    0.91388    0.47634   1.00
C6       0.22988    0.89080    0.50309   1.00
C6       0.28540    0.90521    0.47614   1.00
C6       0.25757    0.86734    0.52046   1.00
C6       0.29289    0.87653    0.50333   1.00
H3       0.19901    0.89109    0.50984   1.00
H3       0.30691    0.91920    0.45769   1.00
H3       0.25259    0.84591    0.54307   1.00
H3       0.32097    0.86378    0.50994   1.00
C4       0.72915    1.00010    0.50002   1.00
C4       0.77085    0.99990    0.49998   1.00
C3       0.70708    1.01692    0.53047   1.00
C3       0.79225    1.02647    0.47688   1.00
C3       0.70816    0.98310    0.46888   1.00
C3a      0.79263    0.97332    0.52358   1.00
C2       0.64483    0.99901    0.49887   1.00
C2       0.85517    1.00118    0.50087   1.00
C3       0.66566    1.01633    0.52985   1.00
C3       0.83359    1.02706    0.47738   1.00
C3       0.66680    0.98242    0.46842   1.00
C3       0.83415    0.97447    0.52375   1.00
H1       0.72192    1.03052    0.55482   1.00
H1       0.77685    1.04710    0.45854   1.00
H1       0.64968    1.02945    0.55373   1.00
H1       0.84895    1.04795    0.45933   1.00
H1       0.65179    0.96862    0.44429   1.00
H1       0.85043    0.95414    0.54162   1.00
C5       0.77239    0.94281    0.54831   1.00
H1       0.72401    0.96933    0.44527   1.00
H2       0.79354    0.92750    0.56755   1.00
H2       0.75103    0.95734    0.56790   1.00
N1       0.75292    0.91388    0.52366   1.00
C6       0.77012    0.89080    0.49691   1.00
C6       0.71460    0.90521    0.52386   1.00
C6       0.74243    0.86734    0.47954   1.00
C6       0.70711    0.87653    0.49667   1.00
H3       0.80099    0.89109    0.49016   1.00
H3       0.69309    0.91920    0.54231   1.00
H3       0.74741    0.84591    0.45693   1.00
H3       0.67903    0.86378    0.49006   1.00
C4       0.49998    0.77085    0.50010   1.00
C4       0.50002    0.72915    0.49990   1.00
C3       0.46953    0.79292    0.51692   1.00
C3       0.52312    0.70775    0.52647   1.00
C3       0.53112    0.79184    0.48310   1.00
C3a      0.47642    0.70737    0.47332   1.00
C2       0.50113    0.85517    0.49901   1.00
C2       0.49913    0.64483    0.50118   1.00
C3       0.47015    0.83434    0.51633   1.00
C3       0.52262    0.66641    0.52706   1.00
C3       0.53158    0.83320    0.48242   1.00
C3       0.47625    0.66585    0.47447   1.00
H1       0.44518    0.77808    0.53052   1.00
H1       0.54146    0.72315    0.54710   1.00
H1       0.44627    0.85032    0.52945   1.00
H1       0.54067    0.65105    0.54795   1.00
H1       0.55571    0.84821    0.46862   1.00
H1       0.45838    0.64957    0.45414   1.00
C5       0.45169    0.72761    0.44281   1.00
H1       0.55473    0.77599    0.46933   1.00
H2       0.43245    0.70646    0.42750   1.00
H2       0.43210    0.74897    0.45734   1.00
N1       0.47634    0.74708    0.41388   1.00
C6       0.50309    0.72988    0.39080   1.00
C6       0.47614    0.78540    0.40521   1.00
C6       0.52046    0.75757    0.36734   1.00
C6       0.50333    0.79289    0.37653   1.00
H3       0.50984    0.69901    0.39109   1.00
H3       0.45769    0.80691    0.41920   1.00
H3       0.54307    0.75259    0.34591   1.00
H3       0.50994    0.82097    0.36378   1.00
C4       0.50010    0.99998    0.27085   1.00
C4       0.49990    1.00002    0.22915   1.00
C3       0.51692    0.96953    0.29292   1.00
C3       0.52647    1.02312    0.20775   1.00
C3       0.48310    1.03112    0.29184   1.00
C3a      0.47332    0.97642    0.20737   1.00
C2       0.49901    1.00113    0.35517   1.00
C2       0.50118    0.99913    0.14483   1.00
C3       0.51633    0.97015    0.33434   1.00
C3       0.52706    1.02262    0.16641   1.00
C3       0.48242    1.03158    0.33320   1.00
C3       0.47447    0.97625    0.16585   1.00
H1       0.53052    0.94518    0.27808   1.00
H1       0.54710    1.04146    0.22315   1.00
H1       0.52945    0.94627    0.35032   1.00
H1       0.54795    1.04067    0.15105   1.00
H1       0.46862    1.05571    0.34821   1.00
H1       0.45414    0.95838    0.14957   1.00
C5       0.44281    0.95169    0.22761   1.00
H1       0.46933    1.05473    0.27599   1.00
H2       0.42750    0.93245    0.20646   1.00
H2       0.45734    0.93210    0.24897   1.00
N1       0.41388    0.97634    0.24708   1.00
C6       0.39080    1.00309    0.22988   1.00
C6       0.40521    0.97614    0.28540   1.00
C6       0.36734    1.02046    0.25757   1.00
C6       0.37653    1.00333    0.29289   1.00
H3       0.39109    1.00984    0.19901   1.00
H3       0.41920    0.95769    0.30691   1.00
H3       0.34591    1.04307    0.25259   1.00
H3       0.36378    1.00994    0.32097   1.00
C4       1.00010    0.50002    0.72915   1.00
C4       0.99990    0.49998    0.77085   1.00
C3       1.01692    0.53047    0.70708   1.00
C3       1.02647    0.47688    0.79225   1.00
C3       0.98310    0.46888    0.70816   1.00
C3a      0.97332    0.52358    0.79263   1.00
C2       0.99901    0.49887    0.64483   1.00
C2       1.00118    0.50087    0.85517   1.00
C3       1.01633    0.52985    0.66566   1.00
C3       1.02706    0.47738    0.83359   1.00
C3       0.98242    0.46842    0.66680   1.00
C3       0.97447    0.52375    0.83415   1.00
H1       1.03052    0.55482    0.72192   1.00
H1       1.04710    0.45854    0.77685   1.00
H1       1.02945    0.55373    0.64968   1.00
H1       1.04795    0.45933    0.84895   1.00
H1       0.96862    0.44429    0.65179   1.00
H1       0.95414    0.54162    0.85043   1.00
C5       0.94281    0.54831    0.77239   1.00
H1       0.96933    0.44527    0.72401   1.00
H2       0.92750    0.56755    0.79354   1.00
H2       0.95734    0.56790    0.75103   1.00
N1       0.91388    0.52366    0.75292   1.00
C6       0.89080    0.49691    0.77012   1.00
C6       0.90521    0.52386    0.71460   1.00
C6       0.86734    0.47954    0.74243   1.00
C6       0.87653    0.49667    0.70711   1.00
H3       0.89109    0.49016    0.80099   1.00
H3       0.91920    0.54231    0.69309   1.00
H3       0.84591    0.45693    0.74741   1.00
H3       0.86378    0.49006    0.67903   1.00
C4       1.00002    0.72915    0.50010   1.00
C4       0.99998    0.77085    0.49990   1.00
C3       1.03047    0.70708    0.51692   1.00
C3       0.97688    0.79225    0.52647   1.00
C3       0.96888    0.70816    0.48310   1.00
C3a      1.02358    0.79263    0.47332   1.00
C2       0.99887    0.64483    0.49901   1.00
C2       1.00087    0.85517    0.50118   1.00
C3       1.02985    0.66566    0.51633   1.00
C3       0.97738    0.83359    0.52706   1.00
C3       0.96842    0.66680    0.48242   1.00
C3       1.02375    0.83415    0.47447   1.00
H1       1.05482    0.72192    0.53052   1.00
H1       0.95854    0.77685    0.54710   1.00
H1       1.05373    0.64968    0.52945   1.00
H1       0.95933    0.84895    0.54795   1.00
H1       0.94429    0.65179    0.46862   1.00
H1       1.04162    0.85043    0.45414   1.00
C5       1.04831    0.77239    0.44281   1.00
H1       0.94527    0.72401    0.46933   1.00
H2       1.06755    0.79354    0.42750   1.00
H2       1.06790    0.75103    0.45734   1.00
N1       1.02366    0.75292    0.41388   1.00
C6       0.99691    0.77012    0.39080   1.00
C6       1.02386    0.71460    0.40521   1.00
C6       0.97954    0.74243    0.36734   1.00
C6       0.99667    0.70711    0.37653   1.00
H3       0.99016    0.80099    0.39109   1.00
H3       1.04231    0.69309    0.41920   1.00
H3       0.95693    0.74741    0.34591   1.00
H3       0.99006    0.67903    0.36378   1.00
C4       0.77085    0.50010    0.49998   1.00
C4       0.72915    0.49990    0.50002   1.00
C3       0.79292    0.51692    0.46953   1.00
C3       0.70775    0.52647    0.52312   1.00
C3       0.79184    0.48310    0.53112   1.00
C3a      0.70737    0.47332    0.47642   1.00
C2       0.85517    0.49901    0.50113   1.00
C2       0.64483    0.50118    0.49913   1.00
C3       0.83434    0.51633    0.47015   1.00
C3       0.66641    0.52706    0.52262   1.00
C3       0.83320    0.48242    0.53158   1.00
C3       0.66585    0.47447    0.47625   1.00
H1       0.77808    0.53052    0.44518   1.00
H1       0.72315    0.54710    0.54146   1.00
H1       0.85032    0.52945    0.44627   1.00
H1       0.65105    0.54795    0.54067   1.00
H1       0.84821    0.46862    0.55571   1.00
H1       0.64957    0.45414    0.45838   1.00
C5       0.72761    0.44281    0.45169   1.00
H1       0.77599    0.46933    0.55473   1.00
H2       0.70646    0.42750    0.43245   1.00
H2       0.74897    0.45734    0.43210   1.00
N1       0.74708    0.41388    0.47634   1.00
C6       0.72988    0.39080    0.50309   1.00
C6       0.78540    0.40521    0.47614   1.00
C6       0.75757    0.36734    0.52046   1.00
C6       0.79289    0.37653    0.50333   1.00
H3       0.69901    0.39109    0.50984   1.00
H3       0.80691    0.41920    0.45769   1.00
H3       0.75259    0.34591    0.54307   1.00
H3       0.82097    0.36378    0.50994   1.00
C4       1.22915    0.50010    0.50002   1.00
C4       1.27085    0.49990    0.49998   1.00
C3       1.20708    0.51692    0.53047   1.00
C3       1.29225    0.52647    0.47688   1.00
C3       1.20816    0.48310    0.46888   1.00
C3a      1.29263    0.47332    0.52358   1.00
C2       1.14483    0.49901    0.49887   1.00
C2       1.35517    0.50118    0.50087   1.00
C3       1.16566    0.51633    0.52985   1.00
C3       1.33359    0.52706    0.47738   1.00
C3       1.16680    0.48242    0.46842   1.00
C3       1.33415    0.47447    0.52375   1.00
H1       1.22192    0.53052    0.55482   1.00
H1       1.27685    0.54710    0.45854   1.00
H1       1.14968    0.52945    0.55373   1.00
H1       1.34895    0.54795    0.45933   1.00
H1       1.15179    0.46862    0.44429   1.00
H1       1.35043    0.45414    0.54162   1.00
C5       1.27239    0.44281    0.54831   1.00
H1       1.22401    0.46933    0.44527   1.00
H2       1.29354    0.42750    0.56755   1.00
H2       1.25103    0.45734    0.56790   1.00
N1       1.25292    0.41388    0.52366   1.00
C6       1.27012    0.39080    0.49691   1.00
C6       1.21460    0.40521    0.52386   1.00
C6       1.24243    0.36734    0.47954   1.00
C6       1.20711    0.37653    0.49667   1.00
H3       1.30099    0.39109    0.49016   1.00
H3       1.19309    0.41920    0.54231   1.00
H3       1.24741    0.34591    0.45693   1.00
H3       1.17903    0.36378    0.49006   1.00
C4       0.99998    0.27085    0.50010   1.00
C4       1.00002    0.22915    0.49990   1.00
C3       0.96953    0.29292    0.51692   1.00
C3       1.02312    0.20775    0.52647   1.00
C3       1.03112    0.29184    0.48310   1.00
C3a      0.97642    0.20737    0.47332   1.00
C2       1.00113    0.35517    0.49901   1.00
C2       0.99913    0.14483    0.50118   1.00
C3       0.97015    0.33434    0.51633   1.00
C3       1.02262    0.16641    0.52706   1.00
C3       1.03158    0.33320    0.48242   1.00
C3       0.97625    0.16585    0.47447   1.00
H1       0.94518    0.27808    0.53052   1.00
H1       1.04146    0.22315    0.54710   1.00
H1       0.94627    0.35032    0.52945   1.00
H1       1.04067    0.15105    0.54795   1.00
H1       1.05571    0.34821    0.46862   1.00
H1       0.95838    0.14957    0.45414   1.00
C5       0.95169    0.22761    0.44281   1.00
H1       1.05473    0.27599    0.46933   1.00
H2       0.93245    0.20646    0.42750   1.00
H2       0.93210    0.24897    0.45734   1.00
N1       0.97634    0.24708    0.41388   1.00
C6       1.00309    0.22988    0.39080   1.00
C6       0.97614    0.28540    0.40521   1.00
C6       1.02046    0.25757    0.36734   1.00
C6       1.00333    0.29289    0.37653   1.00
H3       1.00984    0.19901    0.39109   1.00
H3       0.95769    0.30691    0.41920   1.00
H3       1.04307    0.25259    0.34591   1.00
H3       1.00994    0.32097    0.36378   1.00
C4       1.00010    0.49998    0.27085   1.00
C4       0.99990    0.50002    0.22915   1.00
C3       1.01692    0.46953    0.29292   1.00
C3       1.02647    0.52312    0.20775   1.00
C3       0.98310    0.53112    0.29184   1.00
C3a      0.97332    0.47642    0.20737   1.00
C2       0.99901    0.50113    0.35517   1.00
C2       1.00118    0.49913    0.14483   1.00
C3       1.01633    0.47015    0.33434   1.00
C3       1.02706    0.52262    0.16641   1.00
C3       0.98242    0.53158    0.33320   1.00
C3       0.97447    0.47625    0.16585   1.00
H1       1.03052    0.44518    0.27808   1.00
H1       1.04710    0.54146    0.22315   1.00
H1       1.02945    0.44627    0.35032   1.00
H1       1.04795    0.54067    0.15105   1.00
H1       0.96862    0.55571    0.34821   1.00
H1       0.95414    0.45838    0.14957   1.00
C5       0.94281    0.45169    0.22761   1.00
H1       0.96933    0.55473    0.27599   1.00
H2       0.92750    0.43245    0.20646   1.00
H2       0.95734    0.43210    0.24897   1.00
N1       0.91388    0.47634    0.24708   1.00
C6       0.89080    0.50309    0.22988   1.00
C6       0.90521    0.47614    0.28540   1.00
C6       0.86734    0.52046    0.25757   1.00
C6       0.87653    0.50333    0.29289   1.00
H3       0.89109    0.50984    0.19901   1.00
H3       0.91920    0.45769    0.30691   1.00
H3       0.84591    0.54307    0.25259   1.00
H3       0.86378    0.50994    0.32097   1.00
