data_IRMOF10_SG202_interpen_Ligand10lp_label_n.

_audit_creation_method             'generated by an auxiliary program of Tobunporous'

_symmetry_space_group_name_H-M     'P 1'
_symmetry_Int_Tables_number        1
_symmetry_cell_setting             triclinic

_cell_length_a                    34.2800
_cell_length_b                    34.2800
_cell_length_c                    34.2800
_cell_angle_alpha                 90.0000
_cell_angle_beta                  90.0000
_cell_angle_gamma                 90.0000

loop_
_atom_site_label
_atom_site_fract_x
_atom_site_fract_y
_atom_site_fract_z
_atom_site_occupancy
O1       0.75000    0.75000    0.75000   1.00
Zn1      0.71720    0.78280    0.78280   1.00
Zn1      0.78280    0.71720    0.78280   1.00
Zn1      0.78280    0.78280    0.71720   1.00
Zn1      0.71720    0.71720    0.71720   1.00
O2       0.72650    0.77350    0.83820   1.00
O2       0.72650    0.83820    0.77350   1.00
O2       0.66180    0.77350    0.77350   1.00
O2       0.77350    0.72650    0.83820   1.00
O2       0.83820    0.72650    0.77350   1.00
O2       0.77350    0.66180    0.77350   1.00
O2       0.77350    0.83820    0.72650   1.00
O2       0.83820    0.77350    0.72650   1.00
O2       0.77350    0.77350    0.66180   1.00
O2       0.66180    0.72650    0.72650   1.00
O2       0.72650    0.66180    0.72650   1.00
O2       0.72650    0.72650    0.66180   1.00
C1       0.75000    0.75000    0.85520   1.00
C1       0.75000    0.85520    0.75000   1.00
C1       0.64480    0.75000    0.75000   1.00
C1       0.85520    0.75000    0.75000   1.00
C1       0.75000    0.64480    0.75000   1.00
C1       0.75000    0.75000    0.64480   1.00
O1       0.25000    0.25000    0.75000   1.00
Zn1      0.21720    0.28280    0.78280   1.00
Zn1      0.28280    0.21720    0.78280   1.00
Zn1      0.28280    0.28280    0.71720   1.00
Zn1      0.21720    0.21720    0.71720   1.00
O2       0.22650    0.27350    0.83820   1.00
O2       0.22650    0.33820    0.77350   1.00
O2       0.16180    0.27350    0.77350   1.00
O2       0.27350    0.22650    0.83820   1.00
O2       0.33820    0.22650    0.77350   1.00
O2       0.27350    0.16180    0.77350   1.00
O2       0.27350    0.33820    0.72650   1.00
O2       0.33820    0.27350    0.72650   1.00
O2       0.27350    0.27350    0.66180   1.00
O2       0.16180    0.22650    0.72650   1.00
O2       0.22650    0.16180    0.72650   1.00
O2       0.22650    0.22650    0.66180   1.00
C1       0.25000    0.25000    0.85520   1.00
C1       0.25000    0.35520    0.75000   1.00
C1       0.14480    0.25000    0.75000   1.00
C1       0.35520    0.25000    0.75000   1.00
C1       0.25000    0.14480    0.75000   1.00
C1       0.25000    0.25000    0.64480   1.00
O1       0.25000    0.75000    0.25000   1.00
Zn1      0.21720    0.78280    0.28280   1.00
Zn1      0.28280    0.71720    0.28280   1.00
Zn1      0.28280    0.78280    0.21720   1.00
Zn1      0.21720    0.71720    0.21720   1.00
O2       0.22650    0.77350    0.33820   1.00
O2       0.22650    0.83820    0.27350   1.00
O2       0.16180    0.77350    0.27350   1.00
O2       0.27350    0.72650    0.33820   1.00
O2       0.33820    0.72650    0.27350   1.00
O2       0.27350    0.66180    0.27350   1.00
O2       0.27350    0.83820    0.22650   1.00
O2       0.33820    0.77350    0.22650   1.00
O2       0.27350    0.77350    0.16180   1.00
O2       0.16180    0.72650    0.22650   1.00
O2       0.22650    0.66180    0.22650   1.00
O2       0.22650    0.72650    0.16180   1.00
C1       0.25000    0.75000    0.35520   1.00
C1       0.25000    0.85520    0.25000   1.00
C1       0.14480    0.75000    0.25000   1.00
C1       0.35520    0.75000    0.25000   1.00
C1       0.25000    0.64480    0.25000   1.00
C1       0.25000    0.75000    0.14480   1.00
O1       0.75000    0.25000    0.25000   1.00
Zn1      0.71720    0.28280    0.28280   1.00
Zn1      0.78280    0.21720    0.28280   1.00
Zn1      0.78280    0.28280    0.21720   1.00
Zn1      0.71720    0.21720    0.21720   1.00
O2       0.72650    0.27350    0.33820   1.00
O2       0.72650    0.33820    0.27350   1.00
O2       0.66180    0.27350    0.27350   1.00
O2       0.77350    0.22650    0.33820   1.00
O2       0.83820    0.22650    0.27350   1.00
O2       0.77350    0.16180    0.27350   1.00
O2       0.77350    0.33820    0.22650   1.00
O2       0.83820    0.27350    0.22650   1.00
O2       0.77350    0.27350    0.16180   1.00
O2       0.66180    0.22650    0.22650   1.00
O2       0.72650    0.16180    0.22650   1.00
O2       0.72650    0.22650    0.16180   1.00
C1       0.75000    0.25000    0.35520   1.00
C1       0.75000    0.35520    0.25000   1.00
C1       0.64480    0.25000    0.25000   1.00
C1       0.85520    0.25000    0.25000   1.00
C1       0.75000    0.14480    0.25000   1.00
C1       0.75000    0.25000    0.14480   1.00
O1       0.25000    0.25000    0.25000   1.00
Zn1      0.28280    0.21720    0.21720   1.00
Zn1      0.21720    0.28280    0.21720   1.00
Zn1      0.21720    0.21720    0.28280   1.00
Zn1      0.28280    0.28280    0.28280   1.00
O2       0.27350    0.22650    0.16180   1.00
O2       0.27350    0.16180    0.22650   1.00
O2       0.33820    0.22650    0.22650   1.00
O2       0.22650    0.27350    0.16180   1.00
O2       0.16180    0.27350    0.22650   1.00
O2       0.22650    0.33820    0.22650   1.00
O2       0.22650    0.16180    0.27350   1.00
O2       0.16180    0.22650    0.27350   1.00
O2       0.22650    0.22650    0.33820   1.00
O2       0.33820    0.27350    0.27350   1.00
O2       0.27350    0.33820    0.27350   1.00
O2       0.27350    0.27350    0.33820   1.00
C1       0.25000    0.25000    0.14480   1.00
C1       0.25000    0.14480    0.25000   1.00
C1       0.35520    0.25000    0.25000   1.00
C1       0.14480    0.25000    0.25000   1.00
C1       0.25000    0.35520    0.25000   1.00
C1       0.25000    0.25000    0.35520   1.00
O1       0.75000    0.75000    0.25000   1.00
Zn1      0.78280    0.71720    0.21720   1.00
Zn1      0.71720    0.78280    0.21720   1.00
Zn1      0.71720    0.71720    0.28280   1.00
Zn1      0.78280    0.78280    0.28280   1.00
O2       0.77350    0.72650    0.16180   1.00
O2       0.77350    0.66180    0.22650   1.00
O2       0.83820    0.72650    0.22650   1.00
O2       0.72650    0.77350    0.16180   1.00
O2       0.66180    0.77350    0.22650   1.00
O2       0.72650    0.83820    0.22650   1.00
O2       0.72650    0.66180    0.27350   1.00
O2       0.66180    0.72650    0.27350   1.00
O2       0.72650    0.72650    0.33820   1.00
O2       0.83820    0.77350    0.27350   1.00
O2       0.77350    0.83820    0.27350   1.00
O2       0.77350    0.77350    0.33820   1.00
C1       0.75000    0.75000    0.14480   1.00
C1       0.75000    0.64480    0.25000   1.00
C1       0.85520    0.75000    0.25000   1.00
C1       0.64480    0.75000    0.25000   1.00
C1       0.75000    0.85520    0.25000   1.00
C1       0.75000    0.75000    0.35520   1.00
O1       0.75000    0.25000    0.75000   1.00
Zn1      0.78280    0.21720    0.71720   1.00
Zn1      0.71720    0.28280    0.71720   1.00
Zn1      0.71720    0.21720    0.78280   1.00
Zn1      0.78280    0.28280    0.78280   1.00
O2       0.77350    0.22650    0.66180   1.00
O2       0.77350    0.16180    0.72650   1.00
O2       0.83820    0.22650    0.72650   1.00
O2       0.72650    0.27350    0.66180   1.00
O2       0.66180    0.27350    0.72650   1.00
O2       0.72650    0.33820    0.72650   1.00
O2       0.72650    0.16180    0.77350   1.00
O2       0.66180    0.22650    0.77350   1.00
O2       0.72650    0.22650    0.83820   1.00
O2       0.83820    0.27350    0.77350   1.00
O2       0.77350    0.33820    0.77350   1.00
O2       0.77350    0.27350    0.83820   1.00
C1       0.75000    0.25000    0.64480   1.00
C1       0.75000    0.14480    0.75000   1.00
C1       0.85520    0.25000    0.75000   1.00
C1       0.64480    0.25000    0.75000   1.00
C1       0.75000    0.35520    0.75000   1.00
C1       0.75000    0.25000    0.85520   1.00
O1       0.25000    0.75000    0.75000   1.00
Zn1      0.28280    0.71720    0.71720   1.00
Zn1      0.21720    0.78280    0.71720   1.00
Zn1      0.21720    0.71720    0.78280   1.00
Zn1      0.28280    0.78280    0.78280   1.00
O2       0.27350    0.72650    0.66180   1.00
O2       0.27350    0.66180    0.72650   1.00
O2       0.33820    0.72650    0.72650   1.00
O2       0.22650    0.77350    0.66180   1.00
O2       0.16180    0.77350    0.72650   1.00
O2       0.22650    0.83820    0.72650   1.00
O2       0.22650    0.66180    0.77350   1.00
O2       0.16180    0.72650    0.77350   1.00
O2       0.22650    0.72650    0.83820   1.00
O2       0.33820    0.77350    0.77350   1.00
O2       0.27350    0.83820    0.77350   1.00
O2       0.27350    0.77350    0.83820   1.00
C1       0.25000    0.75000    0.64480   1.00
C1       0.25000    0.64480    0.75000   1.00
C1       0.35520    0.75000    0.75000   1.00
C1       0.14480    0.75000    0.75000   1.00
C1       0.25000    0.85520    0.75000   1.00
C1       0.25000    0.75000    0.85520   1.00
O1       1.00000    1.00000    1.00000   1.00
Zn1      0.96720    1.03280    1.03280   1.00
Zn1      1.03280    0.96720    1.03280   1.00
Zn1      1.03280    1.03280    0.96720   1.00
Zn1      0.96720    0.96720    0.96720   1.00
O2       0.97650    1.02350    1.08820   1.00
O2       0.97650    1.08820    1.02350   1.00
O2       0.91180    1.02350    1.02350   1.00
O2       1.02350    0.97650    1.08820   1.00
O2       1.08820    0.97650    1.02350   1.00
O2       1.02350    0.91180    1.02350   1.00
O2       1.02350    1.08820    0.97650   1.00
O2       1.08820    1.02350    0.97650   1.00
O2       1.02350    1.02350    0.91180   1.00
O2       0.91180    0.97650    0.97650   1.00
O2       0.97650    0.91180    0.97650   1.00
O2       0.97650    0.97650    0.91180   1.00
C1       1.00000    1.00000    1.10520   1.00
C1       1.00000    1.10520    1.00000   1.00
C1       0.89480    1.00000    1.00000   1.00
C1       1.10520    1.00000    1.00000   1.00
C1       1.00000    0.89480    1.00000   1.00
C1       1.00000    1.00000    0.89480   1.00
O1       0.50000    0.50000    1.00000   1.00
Zn1      0.46720    0.53280    1.03280   1.00
Zn1      0.53280    0.46720    1.03280   1.00
Zn1      0.53280    0.53280    0.96720   1.00
Zn1      0.46720    0.46720    0.96720   1.00
O2       0.47650    0.52350    1.08820   1.00
O2       0.47650    0.58820    1.02350   1.00
O2       0.41180    0.52350    1.02350   1.00
O2       0.52350    0.47650    1.08820   1.00
O2       0.58820    0.47650    1.02350   1.00
O2       0.52350    0.41180    1.02350   1.00
O2       0.52350    0.58820    0.97650   1.00
O2       0.58820    0.52350    0.97650   1.00
O2       0.52350    0.52350    0.91180   1.00
O2       0.41180    0.47650    0.97650   1.00
O2       0.47650    0.41180    0.97650   1.00
O2       0.47650    0.47650    0.91180   1.00
C1       0.50000    0.50000    1.10520   1.00
C1       0.50000    0.60520    1.00000   1.00
C1       0.39480    0.50000    1.00000   1.00
C1       0.60520    0.50000    1.00000   1.00
C1       0.50000    0.39480    1.00000   1.00
C1       0.50000    0.50000    0.89480   1.00
O1       0.50000    1.00000    0.50000   1.00
Zn1      0.46720    1.03280    0.53280   1.00
Zn1      0.53280    0.96720    0.53280   1.00
Zn1      0.53280    1.03280    0.46720   1.00
Zn1      0.46720    0.96720    0.46720   1.00
O2       0.47650    1.02350    0.58820   1.00
O2       0.47650    1.08820    0.52350   1.00
O2       0.41180    1.02350    0.52350   1.00
O2       0.52350    0.97650    0.58820   1.00
O2       0.58820    0.97650    0.52350   1.00
O2       0.52350    0.91180    0.52350   1.00
O2       0.52350    1.08820    0.47650   1.00
O2       0.58820    1.02350    0.47650   1.00
O2       0.52350    1.02350    0.41180   1.00
O2       0.41180    0.97650    0.47650   1.00
O2       0.47650    0.91180    0.47650   1.00
O2       0.47650    0.97650    0.41180   1.00
C1       0.50000    1.00000    0.60520   1.00
C1       0.50000    1.10520    0.50000   1.00
C1       0.39480    1.00000    0.50000   1.00
C1       0.60520    1.00000    0.50000   1.00
C1       0.50000    0.89480    0.50000   1.00
C1       0.50000    1.00000    0.39480   1.00
O1       1.00000    0.50000    0.50000   1.00
Zn1      0.96720    0.53280    0.53280   1.00
Zn1      1.03280    0.46720    0.53280   1.00
Zn1      1.03280    0.53280    0.46720   1.00
Zn1      0.96720    0.46720    0.46720   1.00
O2       0.97650    0.52350    0.58820   1.00
O2       0.97650    0.58820    0.52350   1.00
O2       0.91180    0.52350    0.52350   1.00
O2       1.02350    0.47650    0.58820   1.00
O2       1.08820    0.47650    0.52350   1.00
O2       1.02350    0.41180    0.52350   1.00
O2       1.02350    0.58820    0.47650   1.00
O2       1.08820    0.52350    0.47650   1.00
O2       1.02350    0.52350    0.41180   1.00
O2       0.91180    0.47650    0.47650   1.00
O2       0.97650    0.41180    0.47650   1.00
O2       0.97650    0.47650    0.41180   1.00
C1       1.00000    0.50000    0.60520   1.00
C1       1.00000    0.60520    0.50000   1.00
C1       0.89480    0.50000    0.50000   1.00
C1       1.10520    0.50000    0.50000   1.00
C1       1.00000    0.39480    0.50000   1.00
C1       1.00000    0.50000    0.39480   1.00
O1       0.50000    0.50000    0.50000   1.00
Zn1      0.53280    0.46720    0.46720   1.00
Zn1      0.46720    0.53280    0.46720   1.00
Zn1      0.46720    0.46720    0.53280   1.00
Zn1      0.53280    0.53280    0.53280   1.00
O2       0.52350    0.47650    0.41180   1.00
O2       0.52350    0.41180    0.47650   1.00
O2       0.58820    0.47650    0.47650   1.00
O2       0.47650    0.52350    0.41180   1.00
O2       0.41180    0.52350    0.47650   1.00
O2       0.47650    0.58820    0.47650   1.00
O2       0.47650    0.41180    0.52350   1.00
O2       0.41180    0.47650    0.52350   1.00
O2       0.47650    0.47650    0.58820   1.00
O2       0.58820    0.52350    0.52350   1.00
O2       0.52350    0.58820    0.52350   1.00
O2       0.52350    0.52350    0.58820   1.00
C1       0.50000    0.50000    0.39480   1.00
C1       0.50000    0.39480    0.50000   1.00
C1       0.60520    0.50000    0.50000   1.00
C1       0.39480    0.50000    0.50000   1.00
C1       0.50000    0.60520    0.50000   1.00
C1       0.50000    0.50000    0.60520   1.00
O1       1.00000    1.00000    0.50000   1.00
Zn1      1.03280    0.96720    0.46720   1.00
Zn1      0.96720    1.03280    0.46720   1.00
Zn1      0.96720    0.96720    0.53280   1.00
Zn1      1.03280    1.03280    0.53280   1.00
O2       1.02350    0.97650    0.41180   1.00
O2       1.02350    0.91180    0.47650   1.00
O2       1.08820    0.97650    0.47650   1.00
O2       0.97650    1.02350    0.41180   1.00
O2       0.91180    1.02350    0.47650   1.00
O2       0.97650    1.08820    0.47650   1.00
O2       0.97650    0.91180    0.52350   1.00
O2       0.91180    0.97650    0.52350   1.00
O2       0.97650    0.97650    0.58820   1.00
O2       1.08820    1.02350    0.52350   1.00
O2       1.02350    1.08820    0.52350   1.00
O2       1.02350    1.02350    0.58820   1.00
C1       1.00000    1.00000    0.39480   1.00
C1       1.00000    0.89480    0.50000   1.00
C1       1.10520    1.00000    0.50000   1.00
C1       0.89480    1.00000    0.50000   1.00
C1       1.00000    1.10520    0.50000   1.00
C1       1.00000    1.00000    0.60520   1.00
O1       1.00000    0.50000    1.00000   1.00
Zn1      1.03280    0.46720    0.96720   1.00
Zn1      0.96720    0.53280    0.96720   1.00
Zn1      0.96720    0.46720    1.03280   1.00
Zn1      1.03280    0.53280    1.03280   1.00
O2       1.02350    0.47650    0.91180   1.00
O2       1.02350    0.41180    0.97650   1.00
O2       1.08820    0.47650    0.97650   1.00
O2       0.97650    0.52350    0.91180   1.00
O2       0.91180    0.52350    0.97650   1.00
O2       0.97650    0.58820    0.97650   1.00
O2       0.97650    0.41180    1.02350   1.00
O2       0.91180    0.47650    1.02350   1.00
O2       0.97650    0.47650    1.08820   1.00
O2       1.08820    0.52350    1.02350   1.00
O2       1.02350    0.58820    1.02350   1.00
O2       1.02350    0.52350    1.08820   1.00
C1       1.00000    0.50000    0.89480   1.00
C1       1.00000    0.39480    1.00000   1.00
C1       1.10520    0.50000    1.00000   1.00
C1       0.89480    0.50000    1.00000   1.00
C1       1.00000    0.60520    1.00000   1.00
C1       1.00000    0.50000    1.10520   1.00
O1       0.50000    1.00000    1.00000   1.00
Zn1      0.53280    0.96720    0.96720   1.00
Zn1      0.46720    1.03280    0.96720   1.00
Zn1      0.46720    0.96720    1.03280   1.00
Zn1      0.53280    1.03280    1.03280   1.00
O2       0.52350    0.97650    0.91180   1.00
O2       0.52350    0.91180    0.97650   1.00
O2       0.58820    0.97650    0.97650   1.00
O2       0.47650    1.02350    0.91180   1.00
O2       0.41180    1.02350    0.97650   1.00
O2       0.47650    1.08820    0.97650   1.00
O2       0.47650    0.91180    1.02350   1.00
O2       0.41180    0.97650    1.02350   1.00
O2       0.47650    0.97650    1.08820   1.00
O2       0.58820    1.02350    1.02350   1.00
O2       0.52350    1.08820    1.02350   1.00
O2       0.52350    1.02350    1.08820   1.00
C1       0.50000    1.00000    0.89480   1.00
C1       0.50000    0.89480    1.00000   1.00
C1       0.60520    1.00000    1.00000   1.00
C1       0.39480    1.00000    1.00000   1.00
C1       0.50000    1.10520    1.00000   1.00
C1       0.50000    1.00000    1.10520   1.00
C4       0.75022    0.74969    0.97915   1.00
C4       0.74978    0.75031    1.02085   1.00
C3       0.73105    0.72018    0.95751   1.00
C3       0.71604    0.74050    1.04252   1.00
C3       0.76925    0.77919    0.95738   1.00
C3       0.78353    0.75999    1.04259   1.00
C2       0.74987    0.74991    0.89482   1.00
C2       0.74987    0.74991    1.10518   1.00
C3a      0.73080    0.72015    0.91599   1.00
C3       0.71616    0.74034    1.08382   1.00
C3       0.76903    0.77924    0.91611   1.00
C3a      0.78377    0.75987    1.08403   1.00
H1       0.71643    0.69683    0.97294   1.00
H1       0.68922    0.73322    1.02750   1.00
C5       0.71023    0.68813    0.89410   1.00
H1       0.68972    0.73269    1.09933   1.00
H1       0.78368    0.80251    0.90056   1.00
C5       0.82067    0.77050    1.10535   1.00
H1       0.81044    0.76665    1.02747   1.00
H1       0.78379    0.80293    0.97230   1.00
H2       0.82815    0.80128    1.09837   1.00
H2       0.81652    0.76872    1.13747   1.00
N1       0.85258    0.74454    1.09395   1.00
C6       0.86833    0.74137    1.05810   1.00
C6       0.87182    0.71972    1.11757   1.00
C6       0.89788    0.71406    1.05873   1.00
C6       0.90010    0.70029    1.09656   1.00
H3       0.85903    0.75788    1.03281   1.00
H3       0.86564    0.71581    1.14831   1.00
H3       0.91586    0.70520    1.03436   1.00
H3       0.92010    0.67854    1.10758   1.00
H2       0.71295    0.69375    0.86228   1.00
H2       0.72383    0.65931    0.90001   1.00
N1       0.66915    0.68663    0.90523   1.00
C6       0.63622    0.69232    0.88078   1.00
C6       0.65362    0.67889    0.94285   1.00
C6       0.60271    0.68825    0.90277   1.00
C6       0.61340    0.68002    0.94091   1.00
H3       0.63747    0.69889    0.84992   1.00
H3       0.67085    0.67343    0.96876   1.00
H3       0.57318    0.69109    0.89205   1.00
H3       0.59364    0.67538    0.96505   1.00
C4       0.74969    0.97915    0.75022   1.00
C4       0.75031    1.02085    0.74978   1.00
C3       0.72018    0.95751    0.73105   1.00
C3       0.74050    1.04252    0.71604   1.00
C3       0.77919    0.95738    0.76925   1.00
C3       0.75999    1.04259    0.78353   1.00
C2       0.74991    0.89482    0.74987   1.00
C2       0.74991    1.10518    0.74987   1.00
C3a      0.72015    0.91599    0.73080   1.00
C3       0.74034    1.08382    0.71616   1.00
C3       0.77924    0.91611    0.76903   1.00
C3a      0.75987    1.08403    0.78377   1.00
H1       0.69683    0.97294    0.71643   1.00
H1       0.73322    1.02750    0.68922   1.00
C5       0.68813    0.89410    0.71023   1.00
H1       0.73269    1.09933    0.68972   1.00
H1       0.80251    0.90056    0.78368   1.00
C5       0.77050    1.10535    0.82067   1.00
H1       0.76665    1.02747    0.81044   1.00
H1       0.80293    0.97230    0.78379   1.00
H2       0.80128    1.09837    0.82815   1.00
H2       0.76872    1.13747    0.81652   1.00
N1       0.74454    1.09395    0.85258   1.00
C6       0.74137    1.05810    0.86833   1.00
C6       0.71972    1.11757    0.87182   1.00
C6       0.71406    1.05873    0.89788   1.00
C6       0.70029    1.09656    0.90010   1.00
H3       0.75788    1.03281    0.85903   1.00
H3       0.71581    1.14831    0.86564   1.00
H3       0.70520    1.03436    0.91586   1.00
H3       0.67854    1.10758    0.92010   1.00
H2       0.69375    0.86228    0.71295   1.00
H2       0.65931    0.90001    0.72383   1.00
N1       0.68663    0.90523    0.66915   1.00
C6       0.69232    0.88078    0.63622   1.00
C6       0.67889    0.94285    0.65362   1.00
C6       0.68825    0.90277    0.60271   1.00
C6       0.68002    0.94091    0.61340   1.00
H3       0.69889    0.84992    0.63747   1.00
H3       0.67343    0.96876    0.67085   1.00
H3       0.69109    0.89205    0.57318   1.00
H3       0.67538    0.96505    0.59364   1.00
C4       0.52085    0.75022    0.75031   1.00
C4       0.47915    0.74978    0.74969   1.00
C3       0.54249    0.73105    0.77982   1.00
C3       0.45748    0.71604    0.75950   1.00
C3       0.54262    0.76925    0.72081   1.00
C3       0.45741    0.78353    0.74001   1.00
C2       0.60518    0.74987    0.75009   1.00
C2       0.39482    0.74987    0.75009   1.00
C3a      0.58401    0.73080    0.77985   1.00
C3       0.41618    0.71616    0.75966   1.00
C3       0.58389    0.76903    0.72076   1.00
C3a      0.41597    0.78377    0.74013   1.00
H1       0.52706    0.71643    0.80317   1.00
H1       0.47250    0.68922    0.76678   1.00
C5       0.60590    0.71023    0.81187   1.00
H1       0.40067    0.68972    0.76731   1.00
H1       0.59944    0.78368    0.69749   1.00
C5       0.39465    0.82067    0.72950   1.00
H1       0.47253    0.81044    0.73335   1.00
H1       0.52770    0.78379    0.69707   1.00
H2       0.40163    0.82815    0.69872   1.00
H2       0.36253    0.81652    0.73128   1.00
N1       0.40605    0.85258    0.75546   1.00
C6       0.44190    0.86833    0.75863   1.00
C6       0.38243    0.87182    0.78028   1.00
C6       0.44127    0.89788    0.78594   1.00
C6       0.40344    0.90010    0.79971   1.00
H3       0.46719    0.85903    0.74212   1.00
H3       0.35169    0.86564    0.78419   1.00
H3       0.46564    0.91586    0.79480   1.00
H3       0.39242    0.92010    0.82146   1.00
H2       0.63772    0.71295    0.80625   1.00
H2       0.59999    0.72383    0.84069   1.00
N1       0.59477    0.66915    0.81337   1.00
C6       0.61922    0.63622    0.80768   1.00
C6       0.55715    0.65362    0.82111   1.00
C6       0.59723    0.60271    0.81175   1.00
C6       0.55909    0.61340    0.81998   1.00
H3       0.65008    0.63747    0.80111   1.00
H3       0.53124    0.67085    0.82657   1.00
H3       0.60795    0.57318    0.80891   1.00
H3       0.53495    0.59364    0.82462   1.00
C4       0.97915    0.75022    0.74969   1.00
C4       1.02085    0.74978    0.75031   1.00
C3       0.95751    0.73105    0.72018   1.00
C3       1.04252    0.71604    0.74050   1.00
C3       0.95738    0.76925    0.77919   1.00
C3       1.04259    0.78353    0.75999   1.00
C2       0.89482    0.74987    0.74991   1.00
C2       1.10518    0.74987    0.74991   1.00
C3a      0.91599    0.73080    0.72015   1.00
C3       1.08382    0.71616    0.74034   1.00
C3       0.91611    0.76903    0.77924   1.00
C3a      1.08403    0.78377    0.75987   1.00
H1       0.97294    0.71643    0.69683   1.00
H1       1.02750    0.68922    0.73322   1.00
C5       0.89410    0.71023    0.68813   1.00
H1       1.09933    0.68972    0.73269   1.00
H1       0.90056    0.78368    0.80251   1.00
C5       1.10535    0.82067    0.77050   1.00
H1       1.02747    0.81044    0.76665   1.00
H1       0.97230    0.78379    0.80293   1.00
H2       1.09837    0.82815    0.80128   1.00
H2       1.13747    0.81652    0.76872   1.00
N1       1.09395    0.85258    0.74454   1.00
C6       1.05810    0.86833    0.74137   1.00
C6       1.11757    0.87182    0.71972   1.00
C6       1.05873    0.89788    0.71406   1.00
C6       1.09656    0.90010    0.70029   1.00
H3       1.03281    0.85903    0.75788   1.00
H3       1.14831    0.86564    0.71581   1.00
H3       1.03436    0.91586    0.70520   1.00
H3       1.10758    0.92010    0.67854   1.00
H2       0.86228    0.71295    0.69375   1.00
H2       0.90001    0.72383    0.65931   1.00
N1       0.90523    0.66915    0.68663   1.00
C6       0.88078    0.63622    0.69232   1.00
C6       0.94285    0.65362    0.67889   1.00
C6       0.90277    0.60271    0.68825   1.00
C6       0.94091    0.61340    0.68002   1.00
H3       0.84992    0.63747    0.69889   1.00
H3       0.96876    0.67085    0.67343   1.00
H3       0.89205    0.57318    0.69109   1.00
H3       0.96505    0.59364    0.67538   1.00
C4       0.75031    0.52085    0.75022   1.00
C4       0.74969    0.47915    0.74978   1.00
C3       0.77982    0.54249    0.73105   1.00
C3       0.75950    0.45748    0.71604   1.00
C3       0.72081    0.54262    0.76925   1.00
C3       0.74001    0.45741    0.78353   1.00
C2       0.75009    0.60518    0.74987   1.00
C2       0.75009    0.39482    0.74987   1.00
C3a      0.77985    0.58401    0.73080   1.00
C3       0.75966    0.41618    0.71616   1.00
C3       0.72076    0.58389    0.76903   1.00
C3a      0.74013    0.41597    0.78377   1.00
H1       0.80317    0.52706    0.71643   1.00
H1       0.76678    0.47250    0.68922   1.00
C5       0.81187    0.60590    0.71023   1.00
H1       0.76731    0.40067    0.68972   1.00
H1       0.69749    0.59944    0.78368   1.00
C5       0.72950    0.39465    0.82067   1.00
H1       0.73335    0.47253    0.81044   1.00
H1       0.69707    0.52770    0.78379   1.00
H2       0.69872    0.40163    0.82815   1.00
H2       0.73128    0.36253    0.81652   1.00
N1       0.75546    0.40605    0.85258   1.00
C6       0.75863    0.44190    0.86833   1.00
C6       0.78028    0.38243    0.87182   1.00
C6       0.78594    0.44127    0.89788   1.00
C6       0.79971    0.40344    0.90010   1.00
H3       0.74212    0.46719    0.85903   1.00
H3       0.78419    0.35169    0.86564   1.00
H3       0.79480    0.46564    0.91586   1.00
H3       0.82146    0.39242    0.92010   1.00
H2       0.80625    0.63772    0.71295   1.00
H2       0.84069    0.59999    0.72383   1.00
N1       0.81337    0.59477    0.66915   1.00
C6       0.80768    0.61922    0.63622   1.00
C6       0.82111    0.55715    0.65362   1.00
C6       0.81175    0.59723    0.60271   1.00
C6       0.81998    0.55909    0.61340   1.00
H3       0.80111    0.65008    0.63747   1.00
H3       0.82657    0.53124    0.67085   1.00
H3       0.80891    0.60795    0.57318   1.00
H3       0.82462    0.53495    0.59364   1.00
C4       0.75022    0.75031    0.52085   1.00
C4       0.74978    0.74969    0.47915   1.00
C3       0.73105    0.77982    0.54249   1.00
C3       0.71604    0.75950    0.45748   1.00
C3       0.76925    0.72081    0.54262   1.00
C3       0.78353    0.74001    0.45741   1.00
C2       0.74987    0.75009    0.60518   1.00
C2       0.74987    0.75009    0.39482   1.00
C3a      0.73080    0.77985    0.58401   1.00
C3       0.71616    0.75966    0.41618   1.00
C3       0.76903    0.72076    0.58389   1.00
C3a      0.78377    0.74013    0.41597   1.00
H1       0.71643    0.80317    0.52706   1.00
H1       0.68922    0.76678    0.47250   1.00
C5       0.71023    0.81187    0.60590   1.00
H1       0.68972    0.76731    0.40067   1.00
H1       0.78368    0.69749    0.59944   1.00
C5       0.82067    0.72950    0.39465   1.00
H1       0.81044    0.73335    0.47253   1.00
H1       0.78379    0.69707    0.52770   1.00
H2       0.82815    0.69872    0.40163   1.00
H2       0.81652    0.73128    0.36253   1.00
N1       0.85258    0.75546    0.40605   1.00
C6       0.86833    0.75863    0.44190   1.00
C6       0.87182    0.78028    0.38243   1.00
C6       0.89788    0.78594    0.44127   1.00
C6       0.90010    0.79971    0.40344   1.00
H3       0.85903    0.74212    0.46719   1.00
H3       0.86564    0.78419    0.35169   1.00
H3       0.91586    0.79480    0.46564   1.00
H3       0.92010    0.82146    0.39242   1.00
H2       0.71295    0.80625    0.63772   1.00
H2       0.72383    0.84069    0.59999   1.00
N1       0.66915    0.81337    0.59477   1.00
C6       0.63622    0.80768    0.61922   1.00
C6       0.65362    0.82111    0.55715   1.00
C6       0.60271    0.81175    0.59723   1.00
C6       0.61340    0.81998    0.55909   1.00
H3       0.63747    0.80111    0.65008   1.00
H3       0.67085    0.82657    0.53124   1.00
H3       0.57318    0.80891    0.60795   1.00
H3       0.59364    0.82462    0.53495   1.00
C4       0.25022    0.24969    0.97915   1.00
C4       0.24978    0.25031    1.02085   1.00
C3       0.23105    0.22018    0.95751   1.00
C3       0.21604    0.24050    1.04252   1.00
C3       0.26925    0.27919    0.95738   1.00
C3       0.28353    0.25999    1.04259   1.00
C2       0.24987    0.24991    0.89482   1.00
C2       0.24987    0.24991    1.10518   1.00
C3a      0.23080    0.22015    0.91599   1.00
C3       0.21616    0.24034    1.08382   1.00
C3       0.26903    0.27924    0.91611   1.00
C3a      0.28377    0.25987    1.08403   1.00
H1       0.21643    0.19683    0.97294   1.00
H1       0.18922    0.23322    1.02750   1.00
C5       0.21023    0.18813    0.89410   1.00
H1       0.18972    0.23269    1.09933   1.00
H1       0.28368    0.30251    0.90056   1.00
C5       0.32067    0.27050    1.10535   1.00
H1       0.31044    0.26665    1.02747   1.00
H1       0.28379    0.30293    0.97230   1.00
H2       0.32815    0.30128    1.09837   1.00
H2       0.31652    0.26872    1.13747   1.00
N1       0.35258    0.24454    1.09395   1.00
C6       0.36833    0.24137    1.05810   1.00
C6       0.37182    0.21972    1.11757   1.00
C6       0.39788    0.21406    1.05873   1.00
C6       0.40010    0.20029    1.09656   1.00
H3       0.35903    0.25788    1.03281   1.00
H3       0.36564    0.21581    1.14831   1.00
H3       0.41586    0.20520    1.03436   1.00
H3       0.42010    0.17854    1.10758   1.00
H2       0.21295    0.19375    0.86228   1.00
H2       0.22383    0.15931    0.90001   1.00
N1       0.16915    0.18663    0.90523   1.00
C6       0.13622    0.19232    0.88078   1.00
C6       0.15362    0.17889    0.94285   1.00
C6       0.10271    0.18825    0.90277   1.00
C6       0.11340    0.18002    0.94091   1.00
H3       0.13747    0.19889    0.84992   1.00
H3       0.17085    0.17343    0.96876   1.00
H3       0.07318    0.19109    0.89205   1.00
H3       0.09364    0.17538    0.96505   1.00
C4       0.24969    0.47915    0.75022   1.00
C4       0.25031    0.52085    0.74978   1.00
C3       0.22018    0.45751    0.73105   1.00
C3       0.24050    0.54252    0.71604   1.00
C3       0.27919    0.45738    0.76925   1.00
C3       0.25999    0.54259    0.78353   1.00
C2       0.24991    0.39482    0.74987   1.00
C2       0.24991    0.60518    0.74987   1.00
C3a      0.22015    0.41599    0.73080   1.00
C3       0.24034    0.58382    0.71616   1.00
C3       0.27924    0.41611    0.76903   1.00
C3a      0.25987    0.58403    0.78377   1.00
H1       0.19683    0.47294    0.71643   1.00
H1       0.23322    0.52750    0.68922   1.00
C5       0.18813    0.39410    0.71023   1.00
H1       0.23269    0.59933    0.68972   1.00
H1       0.30251    0.40056    0.78368   1.00
C5       0.27050    0.60535    0.82067   1.00
H1       0.26665    0.52747    0.81044   1.00
H1       0.30293    0.47230    0.78379   1.00
H2       0.30128    0.59837    0.82815   1.00
H2       0.26872    0.63747    0.81652   1.00
N1       0.24454    0.59395    0.85258   1.00
C6       0.24137    0.55810    0.86833   1.00
C6       0.21972    0.61757    0.87182   1.00
C6       0.21406    0.55873    0.89788   1.00
C6       0.20029    0.59656    0.90010   1.00
H3       0.25788    0.53281    0.85903   1.00
H3       0.21581    0.64831    0.86564   1.00
H3       0.20520    0.53436    0.91586   1.00
H3       0.17854    0.60758    0.92010   1.00
H2       0.19375    0.36228    0.71295   1.00
H2       0.15931    0.40001    0.72383   1.00
N1       0.18663    0.40523    0.66915   1.00
C6       0.19232    0.38078    0.63622   1.00
C6       0.17889    0.44285    0.65362   1.00
C6       0.18825    0.40277    0.60271   1.00
C6       0.18002    0.44091    0.61340   1.00
H3       0.19889    0.34992    0.63747   1.00
H3       0.17343    0.46876    0.67085   1.00
H3       0.19109    0.39205    0.57318   1.00
H3       0.17538    0.46505    0.59364   1.00
C4       0.02085    0.25022    0.75031   1.00
C4       -0.02085   0.24978    0.74969   1.00
C3       0.04249    0.23105    0.77982   1.00
C3       -0.04252   0.21604    0.75950   1.00
C3       0.04262    0.26925    0.72081   1.00
C3       -0.04259   0.28353    0.74001   1.00
C2       0.10518    0.24987    0.75009   1.00
C2       -0.10518   0.24987    0.75009   1.00
C3a      0.08401    0.23080    0.77985   1.00
C3       -0.08382   0.21616    0.75966   1.00
C3       0.08389    0.26903    0.72076   1.00
C3a      -0.08403   0.28377    0.74013   1.00
H1       0.02706    0.21643    0.80317   1.00
H1       -0.02750   0.18922    0.76678   1.00
C5       0.10590    0.21023    0.81187   1.00
H1       -0.09933   0.18972    0.76731   1.00
H1       0.09944    0.28368    0.69749   1.00
C5       -0.10535   0.32067    0.72950   1.00
H1       -0.02747   0.31044    0.73335   1.00
H1       0.02770    0.28379    0.69707   1.00
H2       -0.09837   0.32815    0.69872   1.00
H2       -0.13747   0.31652    0.73128   1.00
N1       -0.09395   0.35258    0.75546   1.00
C6       -0.05810   0.36833    0.75863   1.00
C6       -0.11757   0.37182    0.78028   1.00
C6       -0.05873   0.39788    0.78594   1.00
C6       -0.09656   0.40010    0.79971   1.00
H3       -0.03281   0.35903    0.74212   1.00
H3       -0.14831   0.36564    0.78419   1.00
H3       -0.03436   0.41586    0.79480   1.00
H3       -0.10758   0.42010    0.82146   1.00
H2       0.13772    0.21295    0.80625   1.00
H2       0.09999    0.22383    0.84069   1.00
N1       0.09477    0.16915    0.81337   1.00
C6       0.11922    0.13622    0.80768   1.00
C6       0.05715    0.15362    0.82111   1.00
C6       0.09723    0.10271    0.81175   1.00
C6       0.05909    0.11340    0.81998   1.00
H3       0.15008    0.13747    0.80111   1.00
H3       0.03124    0.17085    0.82657   1.00
H3       0.10795    0.07318    0.80891   1.00
H3       0.03495    0.09364    0.82462   1.00
C4       0.47915    0.25022    0.74969   1.00
C4       0.52085    0.24978    0.75031   1.00
C3       0.45751    0.23105    0.72018   1.00
C3       0.54252    0.21604    0.74050   1.00
C3       0.45738    0.26925    0.77919   1.00
C3       0.54259    0.28353    0.75999   1.00
C2       0.39482    0.24987    0.74991   1.00
C2       0.60518    0.24987    0.74991   1.00
C3a      0.41599    0.23080    0.72015   1.00
C3       0.58382    0.21616    0.74034   1.00
C3       0.41611    0.26903    0.77924   1.00
C3a      0.58403    0.28377    0.75987   1.00
H1       0.47294    0.21643    0.69683   1.00
H1       0.52750    0.18922    0.73322   1.00
C5       0.39410    0.21023    0.68813   1.00
H1       0.59933    0.18972    0.73269   1.00
H1       0.40056    0.28368    0.80251   1.00
C5       0.60535    0.32067    0.77050   1.00
H1       0.52747    0.31044    0.76665   1.00
H1       0.47230    0.28379    0.80293   1.00
H2       0.59837    0.32815    0.80128   1.00
H2       0.63747    0.31652    0.76872   1.00
N1       0.59395    0.35258    0.74454   1.00
C6       0.55810    0.36833    0.74137   1.00
C6       0.61757    0.37182    0.71972   1.00
C6       0.55873    0.39788    0.71406   1.00
C6       0.59656    0.40010    0.70029   1.00
H3       0.53281    0.35903    0.75788   1.00
H3       0.64831    0.36564    0.71581   1.00
H3       0.53436    0.41586    0.70520   1.00
H3       0.60758    0.42010    0.67854   1.00
H2       0.36228    0.21295    0.69375   1.00
H2       0.40001    0.22383    0.65931   1.00
N1       0.40523    0.16915    0.68663   1.00
C6       0.38078    0.13622    0.69232   1.00
C6       0.44285    0.15362    0.67889   1.00
C6       0.40277    0.10271    0.68825   1.00
C6       0.44091    0.11340    0.68002   1.00
H3       0.34992    0.13747    0.69889   1.00
H3       0.46876    0.17085    0.67343   1.00
H3       0.39205    0.07318    0.69109   1.00
H3       0.46505    0.09364    0.67538   1.00
C4       0.25031    0.02085    0.75022   1.00
C4       0.24969    -0.02085   0.74978   1.00
C3       0.27982    0.04249    0.73105   1.00
C3       0.25950    -0.04252   0.71604   1.00
C3       0.22081    0.04262    0.76925   1.00
C3       0.24001    -0.04259   0.78353   1.00
C2       0.25009    0.10518    0.74987   1.00
C2       0.25009    -0.10518   0.74987   1.00
C3a      0.27985    0.08401    0.73080   1.00
C3       0.25966    -0.08382   0.71616   1.00
C3       0.22076    0.08389    0.76903   1.00
C3a      0.24013    -0.08403   0.78377   1.00
H1       0.30317    0.02706    0.71643   1.00
H1       0.26678    -0.02750   0.68922   1.00
C5       0.31187    0.10590    0.71023   1.00
H1       0.26731    -0.09933   0.68972   1.00
H1       0.19749    0.09944    0.78368   1.00
C5       0.22950    -0.10535   0.82067   1.00
H1       0.23335    -0.02747   0.81044   1.00
H1       0.19707    0.02770    0.78379   1.00
H2       0.19872    -0.09837   0.82815   1.00
H2       0.23128    -0.13747   0.81652   1.00
N1       0.25546    -0.09395   0.85258   1.00
C6       0.25863    -0.05810   0.86833   1.00
C6       0.28028    -0.11757   0.87182   1.00
C6       0.28594    -0.05873   0.89788   1.00
C6       0.29971    -0.09656   0.90010   1.00
H3       0.24212    -0.03281   0.85903   1.00
H3       0.28419    -0.14831   0.86564   1.00
H3       0.29480    -0.03436   0.91586   1.00
H3       0.32146    -0.10758   0.92010   1.00
H2       0.30625    0.13772    0.71295   1.00
H2       0.34069    0.09999    0.72383   1.00
N1       0.31337    0.09477    0.66915   1.00
C6       0.30768    0.11922    0.63622   1.00
C6       0.32111    0.05715    0.65362   1.00
C6       0.31175    0.09723    0.60271   1.00
C6       0.31998    0.05909    0.61340   1.00
H3       0.30111    0.15008    0.63747   1.00
H3       0.32657    0.03124    0.67085   1.00
H3       0.30891    0.10795    0.57318   1.00
H3       0.32462    0.03495    0.59364   1.00
C4       0.25022    0.25031    0.52085   1.00
C4       0.24978    0.24969    0.47915   1.00
C3       0.23105    0.27982    0.54249   1.00
C3       0.21604    0.25950    0.45748   1.00
C3       0.26925    0.22081    0.54262   1.00
C3       0.28353    0.24001    0.45741   1.00
C2       0.24987    0.25009    0.60518   1.00
C2       0.24987    0.25009    0.39482   1.00
C3a      0.23080    0.27985    0.58401   1.00
C3       0.21616    0.25966    0.41618   1.00
C3       0.26903    0.22076    0.58389   1.00
C3a      0.28377    0.24013    0.41597   1.00
H1       0.21643    0.30317    0.52706   1.00
H1       0.18922    0.26678    0.47250   1.00
C5       0.21023    0.31187    0.60590   1.00
H1       0.18972    0.26731    0.40067   1.00
H1       0.28368    0.19749    0.59944   1.00
C5       0.32067    0.22950    0.39465   1.00
H1       0.31044    0.23335    0.47253   1.00
H1       0.28379    0.19707    0.52770   1.00
H2       0.32815    0.19872    0.40163   1.00
H2       0.31652    0.23128    0.36253   1.00
N1       0.35258    0.25546    0.40605   1.00
C6       0.36833    0.25863    0.44190   1.00
C6       0.37182    0.28028    0.38243   1.00
C6       0.39788    0.28594    0.44127   1.00
C6       0.40010    0.29971    0.40344   1.00
H3       0.35903    0.24212    0.46719   1.00
H3       0.36564    0.28419    0.35169   1.00
H3       0.41586    0.29480    0.46564   1.00
H3       0.42010    0.32146    0.39242   1.00
H2       0.21295    0.30625    0.63772   1.00
H2       0.22383    0.34069    0.59999   1.00
N1       0.16915    0.31337    0.59477   1.00
C6       0.13622    0.30768    0.61922   1.00
C6       0.15362    0.32111    0.55715   1.00
C6       0.10271    0.31175    0.59723   1.00
C6       0.11340    0.31998    0.55909   1.00
H3       0.13747    0.30111    0.65008   1.00
H3       0.17085    0.32657    0.53124   1.00
H3       0.07318    0.30891    0.60795   1.00
H3       0.09364    0.32462    0.53495   1.00
C4       0.25022    0.74969    0.47915   1.00
C4       0.24978    0.75031    0.52085   1.00
C3       0.23105    0.72018    0.45751   1.00
C3       0.21604    0.74050    0.54252   1.00
C3       0.26925    0.77919    0.45738   1.00
C3       0.28353    0.75999    0.54259   1.00
C2       0.24987    0.74991    0.39482   1.00
C2       0.24987    0.74991    0.60518   1.00
C3a      0.23080    0.72015    0.41599   1.00
C3       0.21616    0.74034    0.58382   1.00
C3       0.26903    0.77924    0.41611   1.00
C3a      0.28377    0.75987    0.58403   1.00
H1       0.21643    0.69683    0.47294   1.00
H1       0.18922    0.73322    0.52750   1.00
C5       0.21023    0.68813    0.39410   1.00
H1       0.18972    0.73269    0.59933   1.00
H1       0.28368    0.80251    0.40056   1.00
C5       0.32067    0.77050    0.60535   1.00
H1       0.31044    0.76665    0.52747   1.00
H1       0.28379    0.80293    0.47230   1.00
H2       0.32815    0.80128    0.59837   1.00
H2       0.31652    0.76872    0.63747   1.00
N1       0.35258    0.74454    0.59395   1.00
C6       0.36833    0.74137    0.55810   1.00
C6       0.37182    0.71972    0.61757   1.00
C6       0.39788    0.71406    0.55873   1.00
C6       0.40010    0.70029    0.59656   1.00
H3       0.35903    0.75788    0.53281   1.00
H3       0.36564    0.71581    0.64831   1.00
H3       0.41586    0.70520    0.53436   1.00
H3       0.42010    0.67854    0.60758   1.00
H2       0.21295    0.69375    0.36228   1.00
H2       0.22383    0.65931    0.40001   1.00
N1       0.16915    0.68663    0.40523   1.00
C6       0.13622    0.69232    0.38078   1.00
C6       0.15362    0.67889    0.44285   1.00
C6       0.10271    0.68825    0.40277   1.00
C6       0.11340    0.68002    0.44091   1.00
H3       0.13747    0.69889    0.34992   1.00
H3       0.17085    0.67343    0.46876   1.00
H3       0.07318    0.69109    0.39205   1.00
H3       0.09364    0.67538    0.46505   1.00
C4       0.24969    0.97915    0.25022   1.00
C4       0.25031    1.02085    0.24978   1.00
C3       0.22018    0.95751    0.23105   1.00
C3       0.24050    1.04252    0.21604   1.00
C3       0.27919    0.95738    0.26925   1.00
C3       0.25999    1.04259    0.28353   1.00
C2       0.24991    0.89482    0.24987   1.00
C2       0.24991    1.10518    0.24987   1.00
C3a      0.22015    0.91599    0.23080   1.00
C3       0.24034    1.08382    0.21616   1.00
C3       0.27924    0.91611    0.26903   1.00
C3a      0.25987    1.08403    0.28377   1.00
H1       0.19683    0.97294    0.21643   1.00
H1       0.23322    1.02750    0.18922   1.00
C5       0.18813    0.89410    0.21023   1.00
H1       0.23269    1.09933    0.18972   1.00
H1       0.30251    0.90056    0.28368   1.00
C5       0.27050    1.10535    0.32067   1.00
H1       0.26665    1.02747    0.31044   1.00
H1       0.30293    0.97230    0.28379   1.00
H2       0.30128    1.09837    0.32815   1.00
H2       0.26872    1.13747    0.31652   1.00
N1       0.24454    1.09395    0.35258   1.00
C6       0.24137    1.05810    0.36833   1.00
C6       0.21972    1.11757    0.37182   1.00
C6       0.21406    1.05873    0.39788   1.00
C6       0.20029    1.09656    0.40010   1.00
H3       0.25788    1.03281    0.35903   1.00
H3       0.21581    1.14831    0.36564   1.00
H3       0.20520    1.03436    0.41586   1.00
H3       0.17854    1.10758    0.42010   1.00
H2       0.19375    0.86228    0.21295   1.00
H2       0.15931    0.90001    0.22383   1.00
N1       0.18663    0.90523    0.16915   1.00
C6       0.19232    0.88078    0.13622   1.00
C6       0.17889    0.94285    0.15362   1.00
C6       0.18825    0.90277    0.10271   1.00
C6       0.18002    0.94091    0.11340   1.00
H3       0.19889    0.84992    0.13747   1.00
H3       0.17343    0.96876    0.17085   1.00
H3       0.19109    0.89205    0.07318   1.00
H3       0.17538    0.96505    0.09364   1.00
C4       0.02085    0.75022    0.25031   1.00
C4       -0.02085   0.74978    0.24969   1.00
C3       0.04249    0.73105    0.27982   1.00
C3       -0.04252   0.71604    0.25950   1.00
C3       0.04262    0.76925    0.22081   1.00
C3       -0.04259   0.78353    0.24001   1.00
C2       0.10518    0.74987    0.25009   1.00
C2       -0.10518   0.74987    0.25009   1.00
C3a      0.08401    0.73080    0.27985   1.00
C3       -0.08382   0.71616    0.25966   1.00
C3       0.08389    0.76903    0.22076   1.00
C3a      -0.08403   0.78377    0.24013   1.00
H1       0.02706    0.71643    0.30317   1.00
H1       -0.02750   0.68922    0.26678   1.00
C5       0.10590    0.71023    0.31187   1.00
H1       -0.09933   0.68972    0.26731   1.00
H1       0.09944    0.78368    0.19749   1.00
C5       -0.10535   0.82067    0.22950   1.00
H1       -0.02747   0.81044    0.23335   1.00
H1       0.02770    0.78379    0.19707   1.00
H2       -0.09837   0.82815    0.19872   1.00
H2       -0.13747   0.81652    0.23128   1.00
N1       -0.09395   0.85258    0.25546   1.00
C6       -0.05810   0.86833    0.25863   1.00
C6       -0.11757   0.87182    0.28028   1.00
C6       -0.05873   0.89788    0.28594   1.00
C6       -0.09656   0.90010    0.29971   1.00
H3       -0.03281   0.85903    0.24212   1.00
H3       -0.14831   0.86564    0.28419   1.00
H3       -0.03436   0.91586    0.29480   1.00
H3       -0.10758   0.92010    0.32146   1.00
H2       0.13772    0.71295    0.30625   1.00
H2       0.09999    0.72383    0.34069   1.00
N1       0.09477    0.66915    0.31337   1.00
C6       0.11922    0.63622    0.30768   1.00
C6       0.05715    0.65362    0.32111   1.00
C6       0.09723    0.60271    0.31175   1.00
C6       0.05909    0.61340    0.31998   1.00
H3       0.15008    0.63747    0.30111   1.00
H3       0.03124    0.67085    0.32657   1.00
H3       0.10795    0.57318    0.30891   1.00
H3       0.03495    0.59364    0.32462   1.00
C4       0.47915    0.75022    0.24969   1.00
C4       0.52085    0.74978    0.25031   1.00
C3       0.45751    0.73105    0.22018   1.00
C3       0.54252    0.71604    0.24050   1.00
C3       0.45738    0.76925    0.27919   1.00
C3       0.54259    0.78353    0.25999   1.00
C2       0.39482    0.74987    0.24991   1.00
C2       0.60518    0.74987    0.24991   1.00
C3a      0.41599    0.73080    0.22015   1.00
C3       0.58382    0.71616    0.24034   1.00
C3       0.41611    0.76903    0.27924   1.00
C3a      0.58403    0.78377    0.25987   1.00
H1       0.47294    0.71643    0.19683   1.00
H1       0.52750    0.68922    0.23322   1.00
C5       0.39410    0.71023    0.18813   1.00
H1       0.59933    0.68972    0.23269   1.00
H1       0.40056    0.78368    0.30251   1.00
C5       0.60535    0.82067    0.27050   1.00
H1       0.52747    0.81044    0.26665   1.00
H1       0.47230    0.78379    0.30293   1.00
H2       0.59837    0.82815    0.30128   1.00
H2       0.63747    0.81652    0.26872   1.00
N1       0.59395    0.85258    0.24454   1.00
C6       0.55810    0.86833    0.24137   1.00
C6       0.61757    0.87182    0.21972   1.00
C6       0.55873    0.89788    0.21406   1.00
C6       0.59656    0.90010    0.20029   1.00
H3       0.53281    0.85903    0.25788   1.00
H3       0.64831    0.86564    0.21581   1.00
H3       0.53436    0.91586    0.20520   1.00
H3       0.60758    0.92010    0.17854   1.00
H2       0.36228    0.71295    0.19375   1.00
H2       0.40001    0.72383    0.15931   1.00
N1       0.40523    0.66915    0.18663   1.00
C6       0.38078    0.63622    0.19232   1.00
C6       0.44285    0.65362    0.17889   1.00
C6       0.40277    0.60271    0.18825   1.00
C6       0.44091    0.61340    0.18002   1.00
H3       0.34992    0.63747    0.19889   1.00
H3       0.46876    0.67085    0.17343   1.00
H3       0.39205    0.57318    0.19109   1.00
H3       0.46505    0.59364    0.17538   1.00
C4       0.25031    0.52085    0.25022   1.00
C4       0.24969    0.47915    0.24978   1.00
C3       0.27982    0.54249    0.23105   1.00
C3       0.25950    0.45748    0.21604   1.00
C3       0.22081    0.54262    0.26925   1.00
C3       0.24001    0.45741    0.28353   1.00
C2       0.25009    0.60518    0.24987   1.00
C2       0.25009    0.39482    0.24987   1.00
C3a      0.27985    0.58401    0.23080   1.00
C3       0.25966    0.41618    0.21616   1.00
C3       0.22076    0.58389    0.26903   1.00
C3a      0.24013    0.41597    0.28377   1.00
H1       0.30317    0.52706    0.21643   1.00
H1       0.26678    0.47250    0.18922   1.00
C5       0.31187    0.60590    0.21023   1.00
H1       0.26731    0.40067    0.18972   1.00
H1       0.19749    0.59944    0.28368   1.00
C5       0.22950    0.39465    0.32067   1.00
H1       0.23335    0.47253    0.31044   1.00
H1       0.19707    0.52770    0.28379   1.00
H2       0.19872    0.40163    0.32815   1.00
H2       0.23128    0.36253    0.31652   1.00
N1       0.25546    0.40605    0.35258   1.00
C6       0.25863    0.44190    0.36833   1.00
C6       0.28028    0.38243    0.37182   1.00
C6       0.28594    0.44127    0.39788   1.00
C6       0.29971    0.40344    0.40010   1.00
H3       0.24212    0.46719    0.35903   1.00
H3       0.28419    0.35169    0.36564   1.00
H3       0.29480    0.46564    0.41586   1.00
H3       0.32146    0.39242    0.42010   1.00
H2       0.30625    0.63772    0.21295   1.00
H2       0.34069    0.59999    0.22383   1.00
N1       0.31337    0.59477    0.16915   1.00
C6       0.30768    0.61922    0.13622   1.00
C6       0.32111    0.55715    0.15362   1.00
C6       0.31175    0.59723    0.10271   1.00
C6       0.31998    0.55909    0.11340   1.00
H3       0.30111    0.65008    0.13747   1.00
H3       0.32657    0.53124    0.17085   1.00
H3       0.30891    0.60795    0.07318   1.00
H3       0.32462    0.53495    0.09364   1.00
C4       0.25022    0.75031    0.02085   1.00
C4       0.24978    0.74969    -0.02085   1.00
C3       0.23105    0.77982    0.04249   1.00
C3       0.21604    0.75950    -0.04252   1.00
C3       0.26925    0.72081    0.04262   1.00
C3       0.28353    0.74001    -0.04259   1.00
C2       0.24987    0.75009    0.10518   1.00
C2       0.24987    0.75009    -0.10518   1.00
C3a      0.23080    0.77985    0.08401   1.00
C3       0.21616    0.75966    -0.08382   1.00
C3       0.26903    0.72076    0.08389   1.00
C3a      0.28377    0.74013    -0.08403   1.00
H1       0.21643    0.80317    0.02706   1.00
H1       0.18922    0.76678    -0.02750   1.00
C5       0.21023    0.81187    0.10590   1.00
H1       0.18972    0.76731    -0.09933   1.00
H1       0.28368    0.69749    0.09944   1.00
C5       0.32067    0.72950    -0.10535   1.00
H1       0.31044    0.73335    -0.02747   1.00
H1       0.28379    0.69707    0.02770   1.00
H2       0.32815    0.69872    -0.09837   1.00
H2       0.31652    0.73128    -0.13747   1.00
N1       0.35258    0.75546    -0.09395   1.00
C6       0.36833    0.75863    -0.05810   1.00
C6       0.37182    0.78028    -0.11757   1.00
C6       0.39788    0.78594    -0.05873   1.00
C6       0.40010    0.79971    -0.09656   1.00
H3       0.35903    0.74212    -0.03281   1.00
H3       0.36564    0.78419    -0.14831   1.00
H3       0.41586    0.79480    -0.03436   1.00
H3       0.42010    0.82146    -0.10758   1.00
H2       0.21295    0.80625    0.13772   1.00
H2       0.22383    0.84069    0.09999   1.00
N1       0.16915    0.81337    0.09477   1.00
C6       0.13622    0.80768    0.11922   1.00
C6       0.15362    0.82111    0.05715   1.00
C6       0.10271    0.81175    0.09723   1.00
C6       0.11340    0.81998    0.05909   1.00
H3       0.13747    0.80111    0.15008   1.00
H3       0.17085    0.82657    0.03124   1.00
H3       0.07318    0.80891    0.10795   1.00
H3       0.09364    0.82462    0.03495   1.00
C4       0.75022    0.24969    0.47915   1.00
C4       0.74978    0.25031    0.52085   1.00
C3       0.73105    0.22018    0.45751   1.00
C3       0.71604    0.24050    0.54252   1.00
C3       0.76925    0.27919    0.45738   1.00
C3       0.78353    0.25999    0.54259   1.00
C2       0.74987    0.24991    0.39482   1.00
C2       0.74987    0.24991    0.60518   1.00
C3a      0.73080    0.22015    0.41599   1.00
C3       0.71616    0.24034    0.58382   1.00
C3       0.76903    0.27924    0.41611   1.00
C3a      0.78377    0.25987    0.58403   1.00
H1       0.71643    0.19683    0.47294   1.00
H1       0.68922    0.23322    0.52750   1.00
C5       0.71023    0.18813    0.39410   1.00
H1       0.68972    0.23269    0.59933   1.00
H1       0.78368    0.30251    0.40056   1.00
C5       0.82067    0.27050    0.60535   1.00
H1       0.81044    0.26665    0.52747   1.00
H1       0.78379    0.30293    0.47230   1.00
H2       0.82815    0.30128    0.59837   1.00
H2       0.81652    0.26872    0.63747   1.00
N1       0.85258    0.24454    0.59395   1.00
C6       0.86833    0.24137    0.55810   1.00
C6       0.87182    0.21972    0.61757   1.00
C6       0.89788    0.21406    0.55873   1.00
C6       0.90010    0.20029    0.59656   1.00
H3       0.85903    0.25788    0.53281   1.00
H3       0.86564    0.21581    0.64831   1.00
H3       0.91586    0.20520    0.53436   1.00
H3       0.92010    0.17854    0.60758   1.00
H2       0.71295    0.19375    0.36228   1.00
H2       0.72383    0.15931    0.40001   1.00
N1       0.66915    0.18663    0.40523   1.00
C6       0.63622    0.19232    0.38078   1.00
C6       0.65362    0.17889    0.44285   1.00
C6       0.60271    0.18825    0.40277   1.00
C6       0.61340    0.18002    0.44091   1.00
H3       0.63747    0.19889    0.34992   1.00
H3       0.67085    0.17343    0.46876   1.00
H3       0.57318    0.19109    0.39205   1.00
H3       0.59364    0.17538    0.46505   1.00
C4       0.74969    0.47915    0.25022   1.00
C4       0.75031    0.52085    0.24978   1.00
C3       0.72018    0.45751    0.23105   1.00
C3       0.74050    0.54252    0.21604   1.00
C3       0.77919    0.45738    0.26925   1.00
C3       0.75999    0.54259    0.28353   1.00
C2       0.74991    0.39482    0.24987   1.00
C2       0.74991    0.60518    0.24987   1.00
C3a      0.72015    0.41599    0.23080   1.00
C3       0.74034    0.58382    0.21616   1.00
C3       0.77924    0.41611    0.26903   1.00
C3a      0.75987    0.58403    0.28377   1.00
H1       0.69683    0.47294    0.21643   1.00
H1       0.73322    0.52750    0.18922   1.00
C5       0.68813    0.39410    0.21023   1.00
H1       0.73269    0.59933    0.18972   1.00
H1       0.80251    0.40056    0.28368   1.00
C5       0.77050    0.60535    0.32067   1.00
H1       0.76665    0.52747    0.31044   1.00
H1       0.80293    0.47230    0.28379   1.00
H2       0.80128    0.59837    0.32815   1.00
H2       0.76872    0.63747    0.31652   1.00
N1       0.74454    0.59395    0.35258   1.00
C6       0.74137    0.55810    0.36833   1.00
C6       0.71972    0.61757    0.37182   1.00
C6       0.71406    0.55873    0.39788   1.00
C6       0.70029    0.59656    0.40010   1.00
H3       0.75788    0.53281    0.35903   1.00
H3       0.71581    0.64831    0.36564   1.00
H3       0.70520    0.53436    0.41586   1.00
H3       0.67854    0.60758    0.42010   1.00
H2       0.69375    0.36228    0.21295   1.00
H2       0.65931    0.40001    0.22383   1.00
N1       0.68663    0.40523    0.16915   1.00
C6       0.69232    0.38078    0.13622   1.00
C6       0.67889    0.44285    0.15362   1.00
C6       0.68825    0.40277    0.10271   1.00
C6       0.68002    0.44091    0.11340   1.00
H3       0.69889    0.34992    0.13747   1.00
H3       0.67343    0.46876    0.17085   1.00
H3       0.69109    0.39205    0.07318   1.00
H3       0.67538    0.46505    0.09364   1.00
C4       0.52085    0.25022    0.25031   1.00
C4       0.47915    0.24978    0.24969   1.00
C3       0.54249    0.23105    0.27982   1.00
C3       0.45748    0.21604    0.25950   1.00
C3       0.54262    0.26925    0.22081   1.00
C3       0.45741    0.28353    0.24001   1.00
C2       0.60518    0.24987    0.25009   1.00
C2       0.39482    0.24987    0.25009   1.00
C3a      0.58401    0.23080    0.27985   1.00
C3       0.41618    0.21616    0.25966   1.00
C3       0.58389    0.26903    0.22076   1.00
C3a      0.41597    0.28377    0.24013   1.00
H1       0.52706    0.21643    0.30317   1.00
H1       0.47250    0.18922    0.26678   1.00
C5       0.60590    0.21023    0.31187   1.00
H1       0.40067    0.18972    0.26731   1.00
H1       0.59944    0.28368    0.19749   1.00
C5       0.39465    0.32067    0.22950   1.00
H1       0.47253    0.31044    0.23335   1.00
H1       0.52770    0.28379    0.19707   1.00
H2       0.40163    0.32815    0.19872   1.00
H2       0.36253    0.31652    0.23128   1.00
N1       0.40605    0.35258    0.25546   1.00
C6       0.44190    0.36833    0.25863   1.00
C6       0.38243    0.37182    0.28028   1.00
C6       0.44127    0.39788    0.28594   1.00
C6       0.40344    0.40010    0.29971   1.00
H3       0.46719    0.35903    0.24212   1.00
H3       0.35169    0.36564    0.28419   1.00
H3       0.46564    0.41586    0.29480   1.00
H3       0.39242    0.42010    0.32146   1.00
H2       0.63772    0.21295    0.30625   1.00
H2       0.59999    0.22383    0.34069   1.00
N1       0.59477    0.16915    0.31337   1.00
C6       0.61922    0.13622    0.30768   1.00
C6       0.55715    0.15362    0.32111   1.00
C6       0.59723    0.10271    0.31175   1.00
C6       0.55909    0.11340    0.31998   1.00
H3       0.65008    0.13747    0.30111   1.00
H3       0.53124    0.17085    0.32657   1.00
H3       0.60795    0.07318    0.30891   1.00
H3       0.53495    0.09364    0.32462   1.00
C4       0.97915    0.25022    0.24969   1.00
C4       1.02085    0.24978    0.25031   1.00
C3       0.95751    0.23105    0.22018   1.00
C3       1.04252    0.21604    0.24050   1.00
C3       0.95738    0.26925    0.27919   1.00
C3       1.04259    0.28353    0.25999   1.00
C2       0.89482    0.24987    0.24991   1.00
C2       1.10518    0.24987    0.24991   1.00
C3a      0.91599    0.23080    0.22015   1.00
C3       1.08382    0.21616    0.24034   1.00
C3       0.91611    0.26903    0.27924   1.00
C3a      1.08403    0.28377    0.25987   1.00
H1       0.97294    0.21643    0.19683   1.00
H1       1.02750    0.18922    0.23322   1.00
C5       0.89410    0.21023    0.18813   1.00
H1       1.09933    0.18972    0.23269   1.00
H1       0.90056    0.28368    0.30251   1.00
C5       1.10535    0.32067    0.27050   1.00
H1       1.02747    0.31044    0.26665   1.00
H1       0.97230    0.28379    0.30293   1.00
H2       1.09837    0.32815    0.30128   1.00
H2       1.13747    0.31652    0.26872   1.00
N1       1.09395    0.35258    0.24454   1.00
C6       1.05810    0.36833    0.24137   1.00
C6       1.11757    0.37182    0.21972   1.00
C6       1.05873    0.39788    0.21406   1.00
C6       1.09656    0.40010    0.20029   1.00
H3       1.03281    0.35903    0.25788   1.00
H3       1.14831    0.36564    0.21581   1.00
H3       1.03436    0.41586    0.20520   1.00
H3       1.10758    0.42010    0.17854   1.00
H2       0.86228    0.21295    0.19375   1.00
H2       0.90001    0.22383    0.15931   1.00
N1       0.90523    0.16915    0.18663   1.00
C6       0.88078    0.13622    0.19232   1.00
C6       0.94285    0.15362    0.17889   1.00
C6       0.90277    0.10271    0.18825   1.00
C6       0.94091    0.11340    0.18002   1.00
H3       0.84992    0.13747    0.19889   1.00
H3       0.96876    0.17085    0.17343   1.00
H3       0.89205    0.07318    0.19109   1.00
H3       0.96505    0.09364    0.17538   1.00
C4       0.75031    0.02085    0.25022   1.00
C4       0.74969    -0.02085   0.24978   1.00
C3       0.77982    0.04249    0.23105   1.00
C3       0.75950    -0.04252   0.21604   1.00
C3       0.72081    0.04262    0.26925   1.00
C3       0.74001    -0.04259   0.28353   1.00
C2       0.75009    0.10518    0.24987   1.00
C2       0.75009    -0.10518   0.24987   1.00
C3a      0.77985    0.08401    0.23080   1.00
C3       0.75966    -0.08382   0.21616   1.00
C3       0.72076    0.08389    0.26903   1.00
C3a      0.74013    -0.08403   0.28377   1.00
H1       0.80317    0.02706    0.21643   1.00
H1       0.76678    -0.02750   0.18922   1.00
C5       0.81187    0.10590    0.21023   1.00
H1       0.76731    -0.09933   0.18972   1.00
H1       0.69749    0.09944    0.28368   1.00
C5       0.72950    -0.10535   0.32067   1.00
H1       0.73335    -0.02747   0.31044   1.00
H1       0.69707    0.02770    0.28379   1.00
H2       0.69872    -0.09837   0.32815   1.00
H2       0.73128    -0.13747   0.31652   1.00
N1       0.75546    -0.09395   0.35258   1.00
C6       0.75863    -0.05810   0.36833   1.00
C6       0.78028    -0.11757   0.37182   1.00
C6       0.78594    -0.05873   0.39788   1.00
C6       0.79971    -0.09656   0.40010   1.00
H3       0.74212    -0.03281   0.35903   1.00
H3       0.78419    -0.14831   0.36564   1.00
H3       0.79480    -0.03436   0.41586   1.00
H3       0.82146    -0.10758   0.42010   1.00
H2       0.80625    0.13772    0.21295   1.00
H2       0.84069    0.09999    0.22383   1.00
N1       0.81337    0.09477    0.16915   1.00
C6       0.80768    0.11922    0.13622   1.00
C6       0.82111    0.05715    0.15362   1.00
C6       0.81175    0.09723    0.10271   1.00
C6       0.81998    0.05909    0.11340   1.00
H3       0.80111    0.15008    0.13747   1.00
H3       0.82657    0.03124    0.17085   1.00
H3       0.80891    0.10795    0.07318   1.00
H3       0.82462    0.03495    0.09364   1.00
C4       0.75022    0.25031    0.02085   1.00
C4       0.74978    0.24969    -0.02085   1.00
C3       0.73105    0.27982    0.04249   1.00
C3       0.71604    0.25950    -0.04252   1.00
C3       0.76925    0.22081    0.04262   1.00
C3       0.78353    0.24001    -0.04259   1.00
C2       0.74987    0.25009    0.10518   1.00
C2       0.74987    0.25009    -0.10518   1.00
C3a      0.73080    0.27985    0.08401   1.00
C3       0.71616    0.25966    -0.08382   1.00
C3       0.76903    0.22076    0.08389   1.00
C3a      0.78377    0.24013    -0.08403   1.00
H1       0.71643    0.30317    0.02706   1.00
H1       0.68922    0.26678    -0.02750   1.00
C5       0.71023    0.31187    0.10590   1.00
H1       0.68972    0.26731    -0.09933   1.00
H1       0.78368    0.19749    0.09944   1.00
C5       0.82067    0.22950    -0.10535   1.00
H1       0.81044    0.23335    -0.02747   1.00
H1       0.78379    0.19707    0.02770   1.00
H2       0.82815    0.19872    -0.09837   1.00
H2       0.81652    0.23128    -0.13747   1.00
N1       0.85258    0.25546    -0.09395   1.00
C6       0.86833    0.25863    -0.05810   1.00
C6       0.87182    0.28028    -0.11757   1.00
C6       0.89788    0.28594    -0.05873   1.00
C6       0.90010    0.29971    -0.09656   1.00
H3       0.85903    0.24212    -0.03281   1.00
H3       0.86564    0.28419    -0.14831   1.00
H3       0.91586    0.29480    -0.03436   1.00
H3       0.92010    0.32146    -0.10758   1.00
H2       0.71295    0.30625    0.13772   1.00
H2       0.72383    0.34069    0.09999   1.00
N1       0.66915    0.31337    0.09477   1.00
C6       0.63622    0.30768    0.11922   1.00
C6       0.65362    0.32111    0.05715   1.00
C6       0.60271    0.31175    0.09723   1.00
C6       0.61340    0.31998    0.05909   1.00
H3       0.63747    0.30111    0.15008   1.00
H3       0.67085    0.32657    0.03124   1.00
H3       0.57318    0.30891    0.10795   1.00
H3       0.59364    0.32462    0.03495   1.00
C4       1.00022    0.99969    1.22915   1.00
C4       0.99978    1.00031    1.27085   1.00
C3       0.98105    0.97018    1.20751   1.00
C3       0.96604    0.99050    1.29252   1.00
C3       1.01925    1.02919    1.20738   1.00
C3       1.03353    1.00999    1.29259   1.00
C2       0.99987    0.99991    1.14482   1.00
C2       0.99987    0.99991    1.35518   1.00
C3a      0.98080    0.97015    1.16599   1.00
C3       0.96616    0.99034    1.33382   1.00
C3       1.01903    1.02924    1.16611   1.00
C3a      1.03377    1.00987    1.33403   1.00
H1       0.96643    0.94683    1.22294   1.00
H1       0.93922    0.98322    1.27750   1.00
C5       0.96023    0.93813    1.14410   1.00
H1       0.93972    0.98269    1.34933   1.00
H1       1.03368    1.05251    1.15056   1.00
C5       1.07067    1.02050    1.35535   1.00
H1       1.06044    1.01665    1.27747   1.00
H1       1.03379    1.05293    1.22230   1.00
H2       1.07815    1.05128    1.34837   1.00
H2       1.06652    1.01872    1.38747   1.00
N1       1.10258    0.99454    1.34395   1.00
C6       1.11833    0.99137    1.30810   1.00
C6       1.12182    0.96972    1.36757   1.00
C6       1.14788    0.96406    1.30873   1.00
C6       1.15010    0.95029    1.34656   1.00
H3       1.10903    1.00788    1.28281   1.00
H3       1.11564    0.96581    1.39831   1.00
H3       1.16586    0.95520    1.28436   1.00
H3       1.17010    0.92854    1.35758   1.00
H2       0.96295    0.94375    1.11228   1.00
H2       0.97383    0.90931    1.15001   1.00
N1       0.91915    0.93663    1.15523   1.00
C6       0.88622    0.94232    1.13078   1.00
C6       0.90362    0.92889    1.19285   1.00
C6       0.85271    0.93825    1.15277   1.00
C6       0.86340    0.93002    1.19091   1.00
H3       0.88747    0.94889    1.09992   1.00
H3       0.92085    0.92343    1.21876   1.00
H3       0.82318    0.94109    1.14205   1.00
H3       0.84364    0.92538    1.21505   1.00
C4       0.99969    1.22915    1.00022   1.00
C4       1.00031    1.27085    0.99978   1.00
C3       0.97018    1.20751    0.98105   1.00
C3       0.99050    1.29252    0.96604   1.00
C3       1.02919    1.20738    1.01925   1.00
C3       1.00999    1.29259    1.03353   1.00
C2       0.99991    1.14482    0.99987   1.00
C2       0.99991    1.35518    0.99987   1.00
C3a      0.97015    1.16599    0.98080   1.00
C3       0.99034    1.33382    0.96616   1.00
C3       1.02924    1.16611    1.01903   1.00
C3a      1.00987    1.33403    1.03377   1.00
H1       0.94683    1.22294    0.96643   1.00
H1       0.98322    1.27750    0.93922   1.00
C5       0.93813    1.14410    0.96023   1.00
H1       0.98269    1.34933    0.93972   1.00
H1       1.05251    1.15056    1.03368   1.00
C5       1.02050    1.35535    1.07067   1.00
H1       1.01665    1.27747    1.06044   1.00
H1       1.05293    1.22230    1.03379   1.00
H2       1.05128    1.34837    1.07815   1.00
H2       1.01872    1.38747    1.06652   1.00
N1       0.99454    1.34395    1.10258   1.00
C6       0.99137    1.30810    1.11833   1.00
C6       0.96972    1.36757    1.12182   1.00
C6       0.96406    1.30873    1.14788   1.00
C6       0.95029    1.34656    1.15010   1.00
H3       1.00788    1.28281    1.10903   1.00
H3       0.96581    1.39831    1.11564   1.00
H3       0.95520    1.28436    1.16586   1.00
H3       0.92854    1.35758    1.17010   1.00
H2       0.94375    1.11228    0.96295   1.00
H2       0.90931    1.15001    0.97383   1.00
N1       0.93663    1.15523    0.91915   1.00
C6       0.94232    1.13078    0.88622   1.00
C6       0.92889    1.19285    0.90362   1.00
C6       0.93825    1.15277    0.85271   1.00
C6       0.93002    1.19091    0.86340   1.00
H3       0.94889    1.09992    0.88747   1.00
H3       0.92343    1.21876    0.92085   1.00
H3       0.94109    1.14205    0.82318   1.00
H3       0.92538    1.21505    0.84364   1.00
C4       0.77085    1.00022    1.00031   1.00
C4       0.72915    0.99978    0.99969   1.00
C3       0.79249    0.98105    1.02982   1.00
C3       0.70748    0.96604    1.00950   1.00
C3       0.79262    1.01925    0.97081   1.00
C3       0.70741    1.03353    0.99001   1.00
C2       0.85518    0.99987    1.00009   1.00
C2       0.64482    0.99987    1.00009   1.00
C3a      0.83401    0.98080    1.02985   1.00
C3       0.66618    0.96616    1.00966   1.00
C3       0.83389    1.01903    0.97076   1.00
C3a      0.66597    1.03377    0.99013   1.00
H1       0.77706    0.96643    1.05317   1.00
H1       0.72250    0.93922    1.01678   1.00
C5       0.85590    0.96023    1.06187   1.00
H1       0.65067    0.93972    1.01731   1.00
H1       0.84944    1.03368    0.94749   1.00
C5       0.64465    1.07067    0.97950   1.00
H1       0.72253    1.06044    0.98335   1.00
H1       0.77770    1.03379    0.94707   1.00
H2       0.65163    1.07815    0.94872   1.00
H2       0.61253    1.06652    0.98128   1.00
N1       0.65605    1.10258    1.00546   1.00
C6       0.69190    1.11833    1.00863   1.00
C6       0.63243    1.12182    1.03028   1.00
C6       0.69127    1.14788    1.03594   1.00
C6       0.65344    1.15010    1.04971   1.00
H3       0.71719    1.10903    0.99212   1.00
H3       0.60169    1.11564    1.03419   1.00
H3       0.71564    1.16586    1.04480   1.00
H3       0.64242    1.17010    1.07146   1.00
H2       0.88772    0.96295    1.05625   1.00
H2       0.84999    0.97383    1.09069   1.00
N1       0.84477    0.91915    1.06337   1.00
C6       0.86922    0.88622    1.05768   1.00
C6       0.80715    0.90362    1.07111   1.00
C6       0.84723    0.85271    1.06175   1.00
C6       0.80909    0.86340    1.06998   1.00
H3       0.90008    0.88747    1.05111   1.00
H3       0.78124    0.92085    1.07657   1.00
H3       0.85795    0.82318    1.05891   1.00
H3       0.78495    0.84364    1.07462   1.00
C4       1.22915    1.00022    0.99969   1.00
C4       1.27085    0.99978    1.00031   1.00
C3       1.20751    0.98105    0.97018   1.00
C3       1.29252    0.96604    0.99050   1.00
C3       1.20738    1.01925    1.02919   1.00
C3       1.29259    1.03353    1.00999   1.00
C2       1.14482    0.99987    0.99991   1.00
C2       1.35518    0.99987    0.99991   1.00
C3a      1.16599    0.98080    0.97015   1.00
C3       1.33382    0.96616    0.99034   1.00
C3       1.16611    1.01903    1.02924   1.00
C3a      1.33403    1.03377    1.00987   1.00
H1       1.22294    0.96643    0.94683   1.00
H1       1.27750    0.93922    0.98322   1.00
C5       1.14410    0.96023    0.93813   1.00
H1       1.34933    0.93972    0.98269   1.00
H1       1.15056    1.03368    1.05251   1.00
C5       1.35535    1.07067    1.02050   1.00
H1       1.27747    1.06044    1.01665   1.00
H1       1.22230    1.03379    1.05293   1.00
H2       1.34837    1.07815    1.05128   1.00
H2       1.38747    1.06652    1.01872   1.00
N1       1.34395    1.10258    0.99454   1.00
C6       1.30810    1.11833    0.99137   1.00
C6       1.36757    1.12182    0.96972   1.00
C6       1.30873    1.14788    0.96406   1.00
C6       1.34656    1.15010    0.95029   1.00
H3       1.28281    1.10903    1.00788   1.00
H3       1.39831    1.11564    0.96581   1.00
H3       1.28436    1.16586    0.95520   1.00
H3       1.35758    1.17010    0.92854   1.00
H2       1.11228    0.96295    0.94375   1.00
H2       1.15001    0.97383    0.90931   1.00
N1       1.15523    0.91915    0.93663   1.00
C6       1.13078    0.88622    0.94232   1.00
C6       1.19285    0.90362    0.92889   1.00
C6       1.15277    0.85271    0.93825   1.00
C6       1.19091    0.86340    0.93002   1.00
H3       1.09992    0.88747    0.94889   1.00
H3       1.21876    0.92085    0.92343   1.00
H3       1.14205    0.82318    0.94109   1.00
H3       1.21505    0.84364    0.92538   1.00
C4       1.00031    0.77085    1.00022   1.00
C4       0.99969    0.72915    0.99978   1.00
C3       1.02982    0.79249    0.98105   1.00
C3       1.00950    0.70748    0.96604   1.00
C3       0.97081    0.79262    1.01925   1.00
C3       0.99001    0.70741    1.03353   1.00
C2       1.00009    0.85518    0.99987   1.00
C2       1.00009    0.64482    0.99987   1.00
C3a      1.02985    0.83401    0.98080   1.00
C3       1.00966    0.66618    0.96616   1.00
C3       0.97076    0.83389    1.01903   1.00
C3a      0.99013    0.66597    1.03377   1.00
H1       1.05317    0.77706    0.96643   1.00
H1       1.01678    0.72250    0.93922   1.00
C5       1.06187    0.85590    0.96023   1.00
H1       1.01731    0.65067    0.93972   1.00
H1       0.94749    0.84944    1.03368   1.00
C5       0.97950    0.64465    1.07067   1.00
H1       0.98335    0.72253    1.06044   1.00
H1       0.94707    0.77770    1.03379   1.00
H2       0.94872    0.65163    1.07815   1.00
H2       0.98128    0.61253    1.06652   1.00
N1       1.00546    0.65605    1.10258   1.00
C6       1.00863    0.69190    1.11833   1.00
C6       1.03028    0.63243    1.12182   1.00
C6       1.03594    0.69127    1.14788   1.00
C6       1.04971    0.65344    1.15010   1.00
H3       0.99212    0.71719    1.10903   1.00
H3       1.03419    0.60169    1.11564   1.00
H3       1.04480    0.71564    1.16586   1.00
H3       1.07146    0.64242    1.17010   1.00
H2       1.05625    0.88772    0.96295   1.00
H2       1.09069    0.84999    0.97383   1.00
N1       1.06337    0.84477    0.91915   1.00
C6       1.05768    0.86922    0.88622   1.00
C6       1.07111    0.80715    0.90362   1.00
C6       1.06175    0.84723    0.85271   1.00
C6       1.06998    0.80909    0.86340   1.00
H3       1.05111    0.90008    0.88747   1.00
H3       1.07657    0.78124    0.92085   1.00
H3       1.05891    0.85795    0.82318   1.00
H3       1.07462    0.78495    0.84364   1.00
C4       1.00022    1.00031    0.77085   1.00
C4       0.99978    0.99969    0.72915   1.00
C3       0.98105    1.02982    0.79249   1.00
C3       0.96604    1.00950    0.70748   1.00
C3       1.01925    0.97081    0.79262   1.00
C3       1.03353    0.99001    0.70741   1.00
C2       0.99987    1.00009    0.85518   1.00
C2       0.99987    1.00009    0.64482   1.00
C3a      0.98080    1.02985    0.83401   1.00
C3       0.96616    1.00966    0.66618   1.00
C3       1.01903    0.97076    0.83389   1.00
C3a      1.03377    0.99013    0.66597   1.00
H1       0.96643    1.05317    0.77706   1.00
H1       0.93922    1.01678    0.72250   1.00
C5       0.96023    1.06187    0.85590   1.00
H1       0.93972    1.01731    0.65067   1.00
H1       1.03368    0.94749    0.84944   1.00
C5       1.07067    0.97950    0.64465   1.00
H1       1.06044    0.98335    0.72253   1.00
H1       1.03379    0.94707    0.77770   1.00
H2       1.07815    0.94872    0.65163   1.00
H2       1.06652    0.98128    0.61253   1.00
N1       1.10258    1.00546    0.65605   1.00
C6       1.11833    1.00863    0.69190   1.00
C6       1.12182    1.03028    0.63243   1.00
C6       1.14788    1.03594    0.69127   1.00
C6       1.15010    1.04971    0.65344   1.00
H3       1.10903    0.99212    0.71719   1.00
H3       1.11564    1.03419    0.60169   1.00
H3       1.16586    1.04480    0.71564   1.00
H3       1.17010    1.07146    0.64242   1.00
H2       0.96295    1.05625    0.88772   1.00
H2       0.97383    1.09069    0.84999   1.00
N1       0.91915    1.06337    0.84477   1.00
C6       0.88622    1.05768    0.86922   1.00
C6       0.90362    1.07111    0.80715   1.00
C6       0.85271    1.06175    0.84723   1.00
C6       0.86340    1.06998    0.80909   1.00
H3       0.88747    1.05111    0.90008   1.00
H3       0.92085    1.07657    0.78124   1.00
H3       0.82318    1.05891    0.85795   1.00
H3       0.84364    1.07462    0.78495   1.00
C4       0.50022    0.49969    1.22915   1.00
C4       0.49978    0.50031    1.27085   1.00
C3       0.48105    0.47018    1.20751   1.00
C3       0.46604    0.49050    1.29252   1.00
C3       0.51925    0.52919    1.20738   1.00
C3       0.53353    0.50999    1.29259   1.00
C2       0.49987    0.49991    1.14482   1.00
C2       0.49987    0.49991    1.35518   1.00
C3a      0.48080    0.47015    1.16599   1.00
C3       0.46616    0.49034    1.33382   1.00
C3       0.51903    0.52924    1.16611   1.00
C3a      0.53377    0.50987    1.33403   1.00
H1       0.46643    0.44683    1.22294   1.00
H1       0.43922    0.48322    1.27750   1.00
C5       0.46023    0.43813    1.14410   1.00
H1       0.43972    0.48269    1.34933   1.00
H1       0.53368    0.55251    1.15056   1.00
C5       0.57067    0.52050    1.35535   1.00
H1       0.56044    0.51665    1.27747   1.00
H1       0.53379    0.55293    1.22230   1.00
H2       0.57815    0.55128    1.34837   1.00
H2       0.56652    0.51872    1.38747   1.00
N1       0.60258    0.49454    1.34395   1.00
C6       0.61833    0.49137    1.30810   1.00
C6       0.62182    0.46972    1.36757   1.00
C6       0.64788    0.46406    1.30873   1.00
C6       0.65010    0.45029    1.34656   1.00
H3       0.60903    0.50788    1.28281   1.00
H3       0.61564    0.46581    1.39831   1.00
H3       0.66586    0.45520    1.28436   1.00
H3       0.67010    0.42854    1.35758   1.00
H2       0.46295    0.44375    1.11228   1.00
H2       0.47383    0.40931    1.15001   1.00
N1       0.41915    0.43663    1.15523   1.00
C6       0.38622    0.44232    1.13078   1.00
C6       0.40362    0.42889    1.19285   1.00
C6       0.35271    0.43825    1.15277   1.00
C6       0.36340    0.43002    1.19091   1.00
H3       0.38747    0.44889    1.09992   1.00
H3       0.42085    0.42343    1.21876   1.00
H3       0.32318    0.44109    1.14205   1.00
H3       0.34364    0.42538    1.21505   1.00
C4       0.49969    0.72915    1.00022   1.00
C4       0.50031    0.77085    0.99978   1.00
C3       0.47018    0.70751    0.98105   1.00
C3       0.49050    0.79252    0.96604   1.00
C3       0.52919    0.70738    1.01925   1.00
C3       0.50999    0.79259    1.03353   1.00
C2       0.49991    0.64482    0.99987   1.00
C2       0.49991    0.85518    0.99987   1.00
C3a      0.47015    0.66599    0.98080   1.00
C3       0.49034    0.83382    0.96616   1.00
C3       0.52924    0.66611    1.01903   1.00
C3a      0.50987    0.83403    1.03377   1.00
H1       0.44683    0.72294    0.96643   1.00
H1       0.48322    0.77750    0.93922   1.00
C5       0.43813    0.64410    0.96023   1.00
H1       0.48269    0.84933    0.93972   1.00
H1       0.55251    0.65056    1.03368   1.00
C5       0.52050    0.85535    1.07067   1.00
H1       0.51665    0.77747    1.06044   1.00
H1       0.55293    0.72230    1.03379   1.00
H2       0.55128    0.84837    1.07815   1.00
H2       0.51872    0.88747    1.06652   1.00
N1       0.49454    0.84395    1.10258   1.00
C6       0.49137    0.80810    1.11833   1.00
C6       0.46972    0.86757    1.12182   1.00
C6       0.46406    0.80873    1.14788   1.00
C6       0.45029    0.84656    1.15010   1.00
H3       0.50788    0.78281    1.10903   1.00
H3       0.46581    0.89831    1.11564   1.00
H3       0.45520    0.78436    1.16586   1.00
H3       0.42854    0.85758    1.17010   1.00
H2       0.44375    0.61228    0.96295   1.00
H2       0.40931    0.65001    0.97383   1.00
N1       0.43663    0.65523    0.91915   1.00
C6       0.44232    0.63078    0.88622   1.00
C6       0.42889    0.69285    0.90362   1.00
C6       0.43825    0.65277    0.85271   1.00
C6       0.43002    0.69091    0.86340   1.00
H3       0.44889    0.59992    0.88747   1.00
H3       0.42343    0.71876    0.92085   1.00
H3       0.44109    0.64205    0.82318   1.00
H3       0.42538    0.71505    0.84364   1.00
C4       0.27085    0.50022    1.00031   1.00
C4       0.22915    0.49978    0.99969   1.00
C3       0.29249    0.48105    1.02982   1.00
C3       0.20748    0.46604    1.00950   1.00
C3       0.29262    0.51925    0.97081   1.00
C3       0.20741    0.53353    0.99001   1.00
C2       0.35518    0.49987    1.00009   1.00
C2       0.14482    0.49987    1.00009   1.00
C3a      0.33401    0.48080    1.02985   1.00
C3       0.16618    0.46616    1.00966   1.00
C3       0.33389    0.51903    0.97076   1.00
C3a      0.16597    0.53377    0.99013   1.00
H1       0.27706    0.46643    1.05317   1.00
H1       0.22250    0.43922    1.01678   1.00
C5       0.35590    0.46023    1.06187   1.00
H1       0.15067    0.43972    1.01731   1.00
H1       0.34944    0.53368    0.94749   1.00
C5       0.14465    0.57067    0.97950   1.00
H1       0.22253    0.56044    0.98335   1.00
H1       0.27770    0.53379    0.94707   1.00
H2       0.15163    0.57815    0.94872   1.00
H2       0.11253    0.56652    0.98128   1.00
N1       0.15605    0.60258    1.00546   1.00
C6       0.19190    0.61833    1.00863   1.00
C6       0.13243    0.62182    1.03028   1.00
C6       0.19127    0.64788    1.03594   1.00
C6       0.15344    0.65010    1.04971   1.00
H3       0.21719    0.60903    0.99212   1.00
H3       0.10169    0.61564    1.03419   1.00
H3       0.21564    0.66586    1.04480   1.00
H3       0.14242    0.67010    1.07146   1.00
H2       0.38772    0.46295    1.05625   1.00
H2       0.34999    0.47383    1.09069   1.00
N1       0.34477    0.41915    1.06337   1.00
C6       0.36922    0.38622    1.05768   1.00
C6       0.30715    0.40362    1.07111   1.00
C6       0.34723    0.35271    1.06175   1.00
C6       0.30909    0.36340    1.06998   1.00
H3       0.40008    0.38747    1.05111   1.00
H3       0.28124    0.42085    1.07657   1.00
H3       0.35795    0.32318    1.05891   1.00
H3       0.28495    0.34364    1.07462   1.00
C4       0.72915    0.50022    0.99969   1.00
C4       0.77085    0.49978    1.00031   1.00
C3       0.70751    0.48105    0.97018   1.00
C3       0.79252    0.46604    0.99050   1.00
C3       0.70738    0.51925    1.02919   1.00
C3       0.79259    0.53353    1.00999   1.00
C2       0.64482    0.49987    0.99991   1.00
C2       0.85518    0.49987    0.99991   1.00
C3a      0.66599    0.48080    0.97015   1.00
C3       0.83382    0.46616    0.99034   1.00
C3       0.66611    0.51903    1.02924   1.00
C3a      0.83403    0.53377    1.00987   1.00
H1       0.72294    0.46643    0.94683   1.00
H1       0.77750    0.43922    0.98322   1.00
C5       0.64410    0.46023    0.93813   1.00
H1       0.84933    0.43972    0.98269   1.00
H1       0.65056    0.53368    1.05251   1.00
C5       0.85535    0.57067    1.02050   1.00
H1       0.77747    0.56044    1.01665   1.00
H1       0.72230    0.53379    1.05293   1.00
H2       0.84837    0.57815    1.05128   1.00
H2       0.88747    0.56652    1.01872   1.00
N1       0.84395    0.60258    0.99454   1.00
C6       0.80810    0.61833    0.99137   1.00
C6       0.86757    0.62182    0.96972   1.00
C6       0.80873    0.64788    0.96406   1.00
C6       0.84656    0.65010    0.95029   1.00
H3       0.78281    0.60903    1.00788   1.00
H3       0.89831    0.61564    0.96581   1.00
H3       0.78436    0.66586    0.95520   1.00
H3       0.85758    0.67010    0.92854   1.00
H2       0.61228    0.46295    0.94375   1.00
H2       0.65001    0.47383    0.90931   1.00
N1       0.65523    0.41915    0.93663   1.00
C6       0.63078    0.38622    0.94232   1.00
C6       0.69285    0.40362    0.92889   1.00
C6       0.65277    0.35271    0.93825   1.00
C6       0.69091    0.36340    0.93002   1.00
H3       0.59992    0.38747    0.94889   1.00
H3       0.71876    0.42085    0.92343   1.00
H3       0.64205    0.32318    0.94109   1.00
H3       0.71505    0.34364    0.92538   1.00
C4       0.50031    0.27085    1.00022   1.00
C4       0.49969    0.22915    0.99978   1.00
C3       0.52982    0.29249    0.98105   1.00
C3       0.50950    0.20748    0.96604   1.00
C3       0.47081    0.29262    1.01925   1.00
C3       0.49001    0.20741    1.03353   1.00
C2       0.50009    0.35518    0.99987   1.00
C2       0.50009    0.14482    0.99987   1.00
C3a      0.52985    0.33401    0.98080   1.00
C3       0.50966    0.16618    0.96616   1.00
C3       0.47076    0.33389    1.01903   1.00
C3a      0.49013    0.16597    1.03377   1.00
H1       0.55317    0.27706    0.96643   1.00
H1       0.51678    0.22250    0.93922   1.00
C5       0.56187    0.35590    0.96023   1.00
H1       0.51731    0.15067    0.93972   1.00
H1       0.44749    0.34944    1.03368   1.00
C5       0.47950    0.14465    1.07067   1.00
H1       0.48335    0.22253    1.06044   1.00
H1       0.44707    0.27770    1.03379   1.00
H2       0.44872    0.15163    1.07815   1.00
H2       0.48128    0.11253    1.06652   1.00
N1       0.50546    0.15605    1.10258   1.00
C6       0.50863    0.19190    1.11833   1.00
C6       0.53028    0.13243    1.12182   1.00
C6       0.53594    0.19127    1.14788   1.00
C6       0.54971    0.15344    1.15010   1.00
H3       0.49212    0.21719    1.10903   1.00
H3       0.53419    0.10169    1.11564   1.00
H3       0.54480    0.21564    1.16586   1.00
H3       0.57146    0.14242    1.17010   1.00
H2       0.55625    0.38772    0.96295   1.00
H2       0.59069    0.34999    0.97383   1.00
N1       0.56337    0.34477    0.91915   1.00
C6       0.55768    0.36922    0.88622   1.00
C6       0.57111    0.30715    0.90362   1.00
C6       0.56175    0.34723    0.85271   1.00
C6       0.56998    0.30909    0.86340   1.00
H3       0.55111    0.40008    0.88747   1.00
H3       0.57657    0.28124    0.92085   1.00
H3       0.55891    0.35795    0.82318   1.00
H3       0.57462    0.28495    0.84364   1.00
C4       0.50022    0.50031    0.77085   1.00
C4       0.49978    0.49969    0.72915   1.00
C3       0.48105    0.52982    0.79249   1.00
C3       0.46604    0.50950    0.70748   1.00
C3       0.51925    0.47081    0.79262   1.00
C3       0.53353    0.49001    0.70741   1.00
C2       0.49987    0.50009    0.85518   1.00
C2       0.49987    0.50009    0.64482   1.00
C3a      0.48080    0.52985    0.83401   1.00
C3       0.46616    0.50966    0.66618   1.00
C3       0.51903    0.47076    0.83389   1.00
C3a      0.53377    0.49013    0.66597   1.00
H1       0.46643    0.55317    0.77706   1.00
H1       0.43922    0.51678    0.72250   1.00
C5       0.46023    0.56187    0.85590   1.00
H1       0.43972    0.51731    0.65067   1.00
H1       0.53368    0.44749    0.84944   1.00
C5       0.57067    0.47950    0.64465   1.00
H1       0.56044    0.48335    0.72253   1.00
H1       0.53379    0.44707    0.77770   1.00
H2       0.57815    0.44872    0.65163   1.00
H2       0.56652    0.48128    0.61253   1.00
N1       0.60258    0.50546    0.65605   1.00
C6       0.61833    0.50863    0.69190   1.00
C6       0.62182    0.53028    0.63243   1.00
C6       0.64788    0.53594    0.69127   1.00
C6       0.65010    0.54971    0.65344   1.00
H3       0.60903    0.49212    0.71719   1.00
H3       0.61564    0.53419    0.60169   1.00
H3       0.66586    0.54480    0.71564   1.00
H3       0.67010    0.57146    0.64242   1.00
H2       0.46295    0.55625    0.88772   1.00
H2       0.47383    0.59069    0.84999   1.00
N1       0.41915    0.56337    0.84477   1.00
C6       0.38622    0.55768    0.86922   1.00
C6       0.40362    0.57111    0.80715   1.00
C6       0.35271    0.56175    0.84723   1.00
C6       0.36340    0.56998    0.80909   1.00
H3       0.38747    0.55111    0.90008   1.00
H3       0.42085    0.57657    0.78124   1.00
H3       0.32318    0.55891    0.85795   1.00
H3       0.34364    0.57462    0.78495   1.00
C4       0.50022    0.99969    0.72915   1.00
C4       0.49978    1.00031    0.77085   1.00
C3       0.48105    0.97018    0.70751   1.00
C3       0.46604    0.99050    0.79252   1.00
C3       0.51925    1.02919    0.70738   1.00
C3       0.53353    1.00999    0.79259   1.00
C2       0.49987    0.99991    0.64482   1.00
C2       0.49987    0.99991    0.85518   1.00
C3a      0.48080    0.97015    0.66599   1.00
C3       0.46616    0.99034    0.83382   1.00
C3       0.51903    1.02924    0.66611   1.00
C3a      0.53377    1.00987    0.83403   1.00
H1       0.46643    0.94683    0.72294   1.00
H1       0.43922    0.98322    0.77750   1.00
C5       0.46023    0.93813    0.64410   1.00
H1       0.43972    0.98269    0.84933   1.00
H1       0.53368    1.05251    0.65056   1.00
C5       0.57067    1.02050    0.85535   1.00
H1       0.56044    1.01665    0.77747   1.00
H1       0.53379    1.05293    0.72230   1.00
H2       0.57815    1.05128    0.84837   1.00
H2       0.56652    1.01872    0.88747   1.00
N1       0.60258    0.99454    0.84395   1.00
C6       0.61833    0.99137    0.80810   1.00
C6       0.62182    0.96972    0.86757   1.00
C6       0.64788    0.96406    0.80873   1.00
C6       0.65010    0.95029    0.84656   1.00
H3       0.60903    1.00788    0.78281   1.00
H3       0.61564    0.96581    0.89831   1.00
H3       0.66586    0.95520    0.78436   1.00
H3       0.67010    0.92854    0.85758   1.00
H2       0.46295    0.94375    0.61228   1.00
H2       0.47383    0.90931    0.65001   1.00
N1       0.41915    0.93663    0.65523   1.00
C6       0.38622    0.94232    0.63078   1.00
C6       0.40362    0.92889    0.69285   1.00
C6       0.35271    0.93825    0.65277   1.00
C6       0.36340    0.93002    0.69091   1.00
H3       0.38747    0.94889    0.59992   1.00
H3       0.42085    0.92343    0.71876   1.00
H3       0.32318    0.94109    0.64205   1.00
H3       0.34364    0.92538    0.71505   1.00
C4       0.49969    1.22915    0.50022   1.00
C4       0.50031    1.27085    0.49978   1.00
C3       0.47018    1.20751    0.48105   1.00
C3       0.49050    1.29252    0.46604   1.00
C3       0.52919    1.20738    0.51925   1.00
C3       0.50999    1.29259    0.53353   1.00
C2       0.49991    1.14482    0.49987   1.00
C2       0.49991    1.35518    0.49987   1.00
C3a      0.47015    1.16599    0.48080   1.00
C3       0.49034    1.33382    0.46616   1.00
C3       0.52924    1.16611    0.51903   1.00
C3a      0.50987    1.33403    0.53377   1.00
H1       0.44683    1.22294    0.46643   1.00
H1       0.48322    1.27750    0.43922   1.00
C5       0.43813    1.14410    0.46023   1.00
H1       0.48269    1.34933    0.43972   1.00
H1       0.55251    1.15056    0.53368   1.00
C5       0.52050    1.35535    0.57067   1.00
H1       0.51665    1.27747    0.56044   1.00
H1       0.55293    1.22230    0.53379   1.00
H2       0.55128    1.34837    0.57815   1.00
H2       0.51872    1.38747    0.56652   1.00
N1       0.49454    1.34395    0.60258   1.00
C6       0.49137    1.30810    0.61833   1.00
C6       0.46972    1.36757    0.62182   1.00
C6       0.46406    1.30873    0.64788   1.00
C6       0.45029    1.34656    0.65010   1.00
H3       0.50788    1.28281    0.60903   1.00
H3       0.46581    1.39831    0.61564   1.00
H3       0.45520    1.28436    0.66586   1.00
H3       0.42854    1.35758    0.67010   1.00
H2       0.44375    1.11228    0.46295   1.00
H2       0.40931    1.15001    0.47383   1.00
N1       0.43663    1.15523    0.41915   1.00
C6       0.44232    1.13078    0.38622   1.00
C6       0.42889    1.19285    0.40362   1.00
C6       0.43825    1.15277    0.35271   1.00
C6       0.43002    1.19091    0.36340   1.00
H3       0.44889    1.09992    0.38747   1.00
H3       0.42343    1.21876    0.42085   1.00
H3       0.44109    1.14205    0.32318   1.00
H3       0.42538    1.21505    0.34364   1.00
C4       0.27085    1.00022    0.50031   1.00
C4       0.22915    0.99978    0.49969   1.00
C3       0.29249    0.98105    0.52982   1.00
C3       0.20748    0.96604    0.50950   1.00
C3       0.29262    1.01925    0.47081   1.00
C3       0.20741    1.03353    0.49001   1.00
C2       0.35518    0.99987    0.50009   1.00
C2       0.14482    0.99987    0.50009   1.00
C3a      0.33401    0.98080    0.52985   1.00
C3       0.16618    0.96616    0.50966   1.00
C3       0.33389    1.01903    0.47076   1.00
C3a      0.16597    1.03377    0.49013   1.00
H1       0.27706    0.96643    0.55317   1.00
H1       0.22250    0.93922    0.51678   1.00
C5       0.35590    0.96023    0.56187   1.00
H1       0.15067    0.93972    0.51731   1.00
H1       0.34944    1.03368    0.44749   1.00
C5       0.14465    1.07067    0.47950   1.00
H1       0.22253    1.06044    0.48335   1.00
H1       0.27770    1.03379    0.44707   1.00
H2       0.15163    1.07815    0.44872   1.00
H2       0.11253    1.06652    0.48128   1.00
N1       0.15605    1.10258    0.50546   1.00
C6       0.19190    1.11833    0.50863   1.00
C6       0.13243    1.12182    0.53028   1.00
C6       0.19127    1.14788    0.53594   1.00
C6       0.15344    1.15010    0.54971   1.00
H3       0.21719    1.10903    0.49212   1.00
H3       0.10169    1.11564    0.53419   1.00
H3       0.21564    1.16586    0.54480   1.00
H3       0.14242    1.17010    0.57146   1.00
H2       0.38772    0.96295    0.55625   1.00
H2       0.34999    0.97383    0.59069   1.00
N1       0.34477    0.91915    0.56337   1.00
C6       0.36922    0.88622    0.55768   1.00
C6       0.30715    0.90362    0.57111   1.00
C6       0.34723    0.85271    0.56175   1.00
C6       0.30909    0.86340    0.56998   1.00
H3       0.40008    0.88747    0.55111   1.00
H3       0.28124    0.92085    0.57657   1.00
H3       0.35795    0.82318    0.55891   1.00
H3       0.28495    0.84364    0.57462   1.00
C4       0.72915    1.00022    0.49969   1.00
C4       0.77085    0.99978    0.50031   1.00
C3       0.70751    0.98105    0.47018   1.00
C3       0.79252    0.96604    0.49050   1.00
C3       0.70738    1.01925    0.52919   1.00
C3       0.79259    1.03353    0.50999   1.00
C2       0.64482    0.99987    0.49991   1.00
C2       0.85518    0.99987    0.49991   1.00
C3a      0.66599    0.98080    0.47015   1.00
C3       0.83382    0.96616    0.49034   1.00
C3       0.66611    1.01903    0.52924   1.00
C3a      0.83403    1.03377    0.50987   1.00
H1       0.72294    0.96643    0.44683   1.00
H1       0.77750    0.93922    0.48322   1.00
C5       0.64410    0.96023    0.43813   1.00
H1       0.84933    0.93972    0.48269   1.00
H1       0.65056    1.03368    0.55251   1.00
C5       0.85535    1.07067    0.52050   1.00
H1       0.77747    1.06044    0.51665   1.00
H1       0.72230    1.03379    0.55293   1.00
H2       0.84837    1.07815    0.55128   1.00
H2       0.88747    1.06652    0.51872   1.00
N1       0.84395    1.10258    0.49454   1.00
C6       0.80810    1.11833    0.49137   1.00
C6       0.86757    1.12182    0.46972   1.00
C6       0.80873    1.14788    0.46406   1.00
C6       0.84656    1.15010    0.45029   1.00
H3       0.78281    1.10903    0.50788   1.00
H3       0.89831    1.11564    0.46581   1.00
H3       0.78436    1.16586    0.45520   1.00
H3       0.85758    1.17010    0.42854   1.00
H2       0.61228    0.96295    0.44375   1.00
H2       0.65001    0.97383    0.40931   1.00
N1       0.65523    0.91915    0.43663   1.00
C6       0.63078    0.88622    0.44232   1.00
C6       0.69285    0.90362    0.42889   1.00
C6       0.65277    0.85271    0.43825   1.00
C6       0.69091    0.86340    0.43002   1.00
H3       0.59992    0.88747    0.44889   1.00
H3       0.71876    0.92085    0.42343   1.00
H3       0.64205    0.82318    0.44109   1.00
H3       0.71505    0.84364    0.42538   1.00
C4       0.50031    0.77085    0.50022   1.00
C4       0.49969    0.72915    0.49978   1.00
C3       0.52982    0.79249    0.48105   1.00
C3       0.50950    0.70748    0.46604   1.00
C3       0.47081    0.79262    0.51925   1.00
C3       0.49001    0.70741    0.53353   1.00
C2       0.50009    0.85518    0.49987   1.00
C2       0.50009    0.64482    0.49987   1.00
C3a      0.52985    0.83401    0.48080   1.00
C3       0.50966    0.66618    0.46616   1.00
C3       0.47076    0.83389    0.51903   1.00
C3a      0.49013    0.66597    0.53377   1.00
H1       0.55317    0.77706    0.46643   1.00
H1       0.51678    0.72250    0.43922   1.00
C5       0.56187    0.85590    0.46023   1.00
H1       0.51731    0.65067    0.43972   1.00
H1       0.44749    0.84944    0.53368   1.00
C5       0.47950    0.64465    0.57067   1.00
H1       0.48335    0.72253    0.56044   1.00
H1       0.44707    0.77770    0.53379   1.00
H2       0.44872    0.65163    0.57815   1.00
H2       0.48128    0.61253    0.56652   1.00
N1       0.50546    0.65605    0.60258   1.00
C6       0.50863    0.69190    0.61833   1.00
C6       0.53028    0.63243    0.62182   1.00
C6       0.53594    0.69127    0.64788   1.00
C6       0.54971    0.65344    0.65010   1.00
H3       0.49212    0.71719    0.60903   1.00
H3       0.53419    0.60169    0.61564   1.00
H3       0.54480    0.71564    0.66586   1.00
H3       0.57146    0.64242    0.67010   1.00
H2       0.55625    0.88772    0.46295   1.00
H2       0.59069    0.84999    0.47383   1.00
N1       0.56337    0.84477    0.41915   1.00
C6       0.55768    0.86922    0.38622   1.00
C6       0.57111    0.80715    0.40362   1.00
C6       0.56175    0.84723    0.35271   1.00
C6       0.56998    0.80909    0.36340   1.00
H3       0.55111    0.90008    0.38747   1.00
H3       0.57657    0.78124    0.42085   1.00
H3       0.55891    0.85795    0.32318   1.00
H3       0.57462    0.78495    0.34364   1.00
C4       0.50022    1.00031    0.27085   1.00
C4       0.49978    0.99969    0.22915   1.00
C3       0.48105    1.02982    0.29249   1.00
C3       0.46604    1.00950    0.20748   1.00
C3       0.51925    0.97081    0.29262   1.00
C3       0.53353    0.99001    0.20741   1.00
C2       0.49987    1.00009    0.35518   1.00
C2       0.49987    1.00009    0.14482   1.00
C3a      0.48080    1.02985    0.33401   1.00
C3       0.46616    1.00966    0.16618   1.00
C3       0.51903    0.97076    0.33389   1.00
C3a      0.53377    0.99013    0.16597   1.00
H1       0.46643    1.05317    0.27706   1.00
H1       0.43922    1.01678    0.22250   1.00
C5       0.46023    1.06187    0.35590   1.00
H1       0.43972    1.01731    0.15067   1.00
H1       0.53368    0.94749    0.34944   1.00
C5       0.57067    0.97950    0.14465   1.00
H1       0.56044    0.98335    0.22253   1.00
H1       0.53379    0.94707    0.27770   1.00
H2       0.57815    0.94872    0.15163   1.00
H2       0.56652    0.98128    0.11253   1.00
N1       0.60258    1.00546    0.15605   1.00
C6       0.61833    1.00863    0.19190   1.00
C6       0.62182    1.03028    0.13243   1.00
C6       0.64788    1.03594    0.19127   1.00
C6       0.65010    1.04971    0.15344   1.00
H3       0.60903    0.99212    0.21719   1.00
H3       0.61564    1.03419    0.10169   1.00
H3       0.66586    1.04480    0.21564   1.00
H3       0.67010    1.07146    0.14242   1.00
H2       0.46295    1.05625    0.38772   1.00
H2       0.47383    1.09069    0.34999   1.00
N1       0.41915    1.06337    0.34477   1.00
C6       0.38622    1.05768    0.36922   1.00
C6       0.40362    1.07111    0.30715   1.00
C6       0.35271    1.06175    0.34723   1.00
C6       0.36340    1.06998    0.30909   1.00
H3       0.38747    1.05111    0.40008   1.00
H3       0.42085    1.07657    0.28124   1.00
H3       0.32318    1.05891    0.35795   1.00
H3       0.34364    1.07462    0.28495   1.00
C4       1.00022    0.49969    0.72915   1.00
C4       0.99978    0.50031    0.77085   1.00
C3       0.98105    0.47018    0.70751   1.00
C3       0.96604    0.49050    0.79252   1.00
C3       1.01925    0.52919    0.70738   1.00
C3       1.03353    0.50999    0.79259   1.00
C2       0.99987    0.49991    0.64482   1.00
C2       0.99987    0.49991    0.85518   1.00
C3a      0.98080    0.47015    0.66599   1.00
C3       0.96616    0.49034    0.83382   1.00
C3       1.01903    0.52924    0.66611   1.00
C3a      1.03377    0.50987    0.83403   1.00
H1       0.96643    0.44683    0.72294   1.00
H1       0.93922    0.48322    0.77750   1.00
C5       0.96023    0.43813    0.64410   1.00
H1       0.93972    0.48269    0.84933   1.00
H1       1.03368    0.55251    0.65056   1.00
C5       1.07067    0.52050    0.85535   1.00
H1       1.06044    0.51665    0.77747   1.00
H1       1.03379    0.55293    0.72230   1.00
H2       1.07815    0.55128    0.84837   1.00
H2       1.06652    0.51872    0.88747   1.00
N1       1.10258    0.49454    0.84395   1.00
C6       1.11833    0.49137    0.80810   1.00
C6       1.12182    0.46972    0.86757   1.00
C6       1.14788    0.46406    0.80873   1.00
C6       1.15010    0.45029    0.84656   1.00
H3       1.10903    0.50788    0.78281   1.00
H3       1.11564    0.46581    0.89831   1.00
H3       1.16586    0.45520    0.78436   1.00
H3       1.17010    0.42854    0.85758   1.00
H2       0.96295    0.44375    0.61228   1.00
H2       0.97383    0.40931    0.65001   1.00
N1       0.91915    0.43663    0.65523   1.00
C6       0.88622    0.44232    0.63078   1.00
C6       0.90362    0.42889    0.69285   1.00
C6       0.85271    0.43825    0.65277   1.00
C6       0.86340    0.43002    0.69091   1.00
H3       0.88747    0.44889    0.59992   1.00
H3       0.92085    0.42343    0.71876   1.00
H3       0.82318    0.44109    0.64205   1.00
H3       0.84364    0.42538    0.71505   1.00
C4       0.99969    0.72915    0.50022   1.00
C4       1.00031    0.77085    0.49978   1.00
C3       0.97018    0.70751    0.48105   1.00
C3       0.99050    0.79252    0.46604   1.00
C3       1.02919    0.70738    0.51925   1.00
C3       1.00999    0.79259    0.53353   1.00
C2       0.99991    0.64482    0.49987   1.00
C2       0.99991    0.85518    0.49987   1.00
C3a      0.97015    0.66599    0.48080   1.00
C3       0.99034    0.83382    0.46616   1.00
C3       1.02924    0.66611    0.51903   1.00
C3a      1.00987    0.83403    0.53377   1.00
H1       0.94683    0.72294    0.46643   1.00
H1       0.98322    0.77750    0.43922   1.00
C5       0.93813    0.64410    0.46023   1.00
H1       0.98269    0.84933    0.43972   1.00
H1       1.05251    0.65056    0.53368   1.00
C5       1.02050    0.85535    0.57067   1.00
H1       1.01665    0.77747    0.56044   1.00
H1       1.05293    0.72230    0.53379   1.00
H2       1.05128    0.84837    0.57815   1.00
H2       1.01872    0.88747    0.56652   1.00
N1       0.99454    0.84395    0.60258   1.00
C6       0.99137    0.80810    0.61833   1.00
C6       0.96972    0.86757    0.62182   1.00
C6       0.96406    0.80873    0.64788   1.00
C6       0.95029    0.84656    0.65010   1.00
H3       1.00788    0.78281    0.60903   1.00
H3       0.96581    0.89831    0.61564   1.00
H3       0.95520    0.78436    0.66586   1.00
H3       0.92854    0.85758    0.67010   1.00
H2       0.94375    0.61228    0.46295   1.00
H2       0.90931    0.65001    0.47383   1.00
N1       0.93663    0.65523    0.41915   1.00
C6       0.94232    0.63078    0.38622   1.00
C6       0.92889    0.69285    0.40362   1.00
C6       0.93825    0.65277    0.35271   1.00
C6       0.93002    0.69091    0.36340   1.00
H3       0.94889    0.59992    0.38747   1.00
H3       0.92343    0.71876    0.42085   1.00
H3       0.94109    0.64205    0.32318   1.00
H3       0.92538    0.71505    0.34364   1.00
C4       0.77085    0.50022    0.50031   1.00
C4       0.72915    0.49978    0.49969   1.00
C3       0.79249    0.48105    0.52982   1.00
C3       0.70748    0.46604    0.50950   1.00
C3       0.79262    0.51925    0.47081   1.00
C3       0.70741    0.53353    0.49001   1.00
C2       0.85518    0.49987    0.50009   1.00
C2       0.64482    0.49987    0.50009   1.00
C3a      0.83401    0.48080    0.52985   1.00
C3       0.66618    0.46616    0.50966   1.00
C3       0.83389    0.51903    0.47076   1.00
C3a      0.66597    0.53377    0.49013   1.00
H1       0.77706    0.46643    0.55317   1.00
H1       0.72250    0.43922    0.51678   1.00
C5       0.85590    0.46023    0.56187   1.00
H1       0.65067    0.43972    0.51731   1.00
H1       0.84944    0.53368    0.44749   1.00
C5       0.64465    0.57067    0.47950   1.00
H1       0.72253    0.56044    0.48335   1.00
H1       0.77770    0.53379    0.44707   1.00
H2       0.65163    0.57815    0.44872   1.00
H2       0.61253    0.56652    0.48128   1.00
N1       0.65605    0.60258    0.50546   1.00
C6       0.69190    0.61833    0.50863   1.00
C6       0.63243    0.62182    0.53028   1.00
C6       0.69127    0.64788    0.53594   1.00
C6       0.65344    0.65010    0.54971   1.00
H3       0.71719    0.60903    0.49212   1.00
H3       0.60169    0.61564    0.53419   1.00
H3       0.71564    0.66586    0.54480   1.00
H3       0.64242    0.67010    0.57146   1.00
H2       0.88772    0.46295    0.55625   1.00
H2       0.84999    0.47383    0.59069   1.00
N1       0.84477    0.41915    0.56337   1.00
C6       0.86922    0.38622    0.55768   1.00
C6       0.80715    0.40362    0.57111   1.00
C6       0.84723    0.35271    0.56175   1.00
C6       0.80909    0.36340    0.56998   1.00
H3       0.90008    0.38747    0.55111   1.00
H3       0.78124    0.42085    0.57657   1.00
H3       0.85795    0.32318    0.55891   1.00
H3       0.78495    0.34364    0.57462   1.00
C4       1.22915    0.50022    0.49969   1.00
C4       1.27085    0.49978    0.50031   1.00
C3       1.20751    0.48105    0.47018   1.00
C3       1.29252    0.46604    0.49050   1.00
C3       1.20738    0.51925    0.52919   1.00
C3       1.29259    0.53353    0.50999   1.00
C2       1.14482    0.49987    0.49991   1.00
C2       1.35518    0.49987    0.49991   1.00
C3a      1.16599    0.48080    0.47015   1.00
C3       1.33382    0.46616    0.49034   1.00
C3       1.16611    0.51903    0.52924   1.00
C3a      1.33403    0.53377    0.50987   1.00
H1       1.22294    0.46643    0.44683   1.00
H1       1.27750    0.43922    0.48322   1.00
C5       1.14410    0.46023    0.43813   1.00
H1       1.34933    0.43972    0.48269   1.00
H1       1.15056    0.53368    0.55251   1.00
C5       1.35535    0.57067    0.52050   1.00
H1       1.27747    0.56044    0.51665   1.00
H1       1.22230    0.53379    0.55293   1.00
H2       1.34837    0.57815    0.55128   1.00
H2       1.38747    0.56652    0.51872   1.00
N1       1.34395    0.60258    0.49454   1.00
C6       1.30810    0.61833    0.49137   1.00
C6       1.36757    0.62182    0.46972   1.00
C6       1.30873    0.64788    0.46406   1.00
C6       1.34656    0.65010    0.45029   1.00
H3       1.28281    0.60903    0.50788   1.00
H3       1.39831    0.61564    0.46581   1.00
H3       1.28436    0.66586    0.45520   1.00
H3       1.35758    0.67010    0.42854   1.00
H2       1.11228    0.46295    0.44375   1.00
H2       1.15001    0.47383    0.40931   1.00
N1       1.15523    0.41915    0.43663   1.00
C6       1.13078    0.38622    0.44232   1.00
C6       1.19285    0.40362    0.42889   1.00
C6       1.15277    0.35271    0.43825   1.00
C6       1.19091    0.36340    0.43002   1.00
H3       1.09992    0.38747    0.44889   1.00
H3       1.21876    0.42085    0.42343   1.00
H3       1.14205    0.32318    0.44109   1.00
H3       1.21505    0.34364    0.42538   1.00
C4       1.00031    0.27085    0.50022   1.00
C4       0.99969    0.22915    0.49978   1.00
C3       1.02982    0.29249    0.48105   1.00
C3       1.00950    0.20748    0.46604   1.00
C3       0.97081    0.29262    0.51925   1.00
C3       0.99001    0.20741    0.53353   1.00
C2       1.00009    0.35518    0.49987   1.00
C2       1.00009    0.14482    0.49987   1.00
C3a      1.02985    0.33401    0.48080   1.00
C3       1.00966    0.16618    0.46616   1.00
C3       0.97076    0.33389    0.51903   1.00
C3a      0.99013    0.16597    0.53377   1.00
H1       1.05317    0.27706    0.46643   1.00
H1       1.01678    0.22250    0.43922   1.00
C5       1.06187    0.35590    0.46023   1.00
H1       1.01731    0.15067    0.43972   1.00
H1       0.94749    0.34944    0.53368   1.00
C5       0.97950    0.14465    0.57067   1.00
H1       0.98335    0.22253    0.56044   1.00
H1       0.94707    0.27770    0.53379   1.00
H2       0.94872    0.15163    0.57815   1.00
H2       0.98128    0.11253    0.56652   1.00
N1       1.00546    0.15605    0.60258   1.00
C6       1.00863    0.19190    0.61833   1.00
C6       1.03028    0.13243    0.62182   1.00
C6       1.03594    0.19127    0.64788   1.00
C6       1.04971    0.15344    0.65010   1.00
H3       0.99212    0.21719    0.60903   1.00
H3       1.03419    0.10169    0.61564   1.00
H3       1.04480    0.21564    0.66586   1.00
H3       1.07146    0.14242    0.67010   1.00
H2       1.05625    0.38772    0.46295   1.00
H2       1.09069    0.34999    0.47383   1.00
N1       1.06337    0.34477    0.41915   1.00
C6       1.05768    0.36922    0.38622   1.00
C6       1.07111    0.30715    0.40362   1.00
C6       1.06175    0.34723    0.35271   1.00
C6       1.06998    0.30909    0.36340   1.00
H3       1.05111    0.40008    0.38747   1.00
H3       1.07657    0.28124    0.42085   1.00
H3       1.05891    0.35795    0.32318   1.00
H3       1.07462    0.28495    0.34364   1.00
C4       1.00022    0.50031    0.27085   1.00
C4       0.99978    0.49969    0.22915   1.00
C3       0.98105    0.52982    0.29249   1.00
C3       0.96604    0.50950    0.20748   1.00
C3       1.01925    0.47081    0.29262   1.00
C3       1.03353    0.49001    0.20741   1.00
C2       0.99987    0.50009    0.35518   1.00
C2       0.99987    0.50009    0.14482   1.00
C3a      0.98080    0.52985    0.33401   1.00
C3       0.96616    0.50966    0.16618   1.00
C3       1.01903    0.47076    0.33389   1.00
C3a      1.03377    0.49013    0.16597   1.00
H1       0.96643    0.55317    0.27706   1.00
H1       0.93922    0.51678    0.22250   1.00
C5       0.96023    0.56187    0.35590   1.00
H1       0.93972    0.51731    0.15067   1.00
H1       1.03368    0.44749    0.34944   1.00
C5       1.07067    0.47950    0.14465   1.00
H1       1.06044    0.48335    0.22253   1.00
H1       1.03379    0.44707    0.27770   1.00
H2       1.07815    0.44872    0.15163   1.00
H2       1.06652    0.48128    0.11253   1.00
N1       1.10258    0.50546    0.15605   1.00
C6       1.11833    0.50863    0.19190   1.00
C6       1.12182    0.53028    0.13243   1.00
C6       1.14788    0.53594    0.19127   1.00
C6       1.15010    0.54971    0.15344   1.00
H3       1.10903    0.49212    0.21719   1.00
H3       1.11564    0.53419    0.10169   1.00
H3       1.16586    0.54480    0.21564   1.00
H3       1.17010    0.57146    0.14242   1.00
H2       0.96295    0.55625    0.38772   1.00
H2       0.97383    0.59069    0.34999   1.00
N1       0.91915    0.56337    0.34477   1.00
C6       0.88622    0.55768    0.36922   1.00
C6       0.90362    0.57111    0.30715   1.00
C6       0.85271    0.56175    0.34723   1.00
C6       0.86340    0.56998    0.30909   1.00
H3       0.88747    0.55111    0.40008   1.00
H3       0.92085    0.57657    0.28124   1.00
H3       0.82318    0.55891    0.35795   1.00
H3       0.84364    0.57462    0.28495   1.00
