data_IRMOF10_SG202_interpen_Ligand1lp_label_c.

_audit_creation_method             'generated by an auxiliary program of Tobunporous'

_symmetry_space_group_name_H-M     'P 1'
_symmetry_Int_Tables_number        1
_symmetry_cell_setting             triclinic

_cell_length_a                    34.2800
_cell_length_b                    34.2800
_cell_length_c                    34.2800
_cell_angle_alpha                 90.0000
_cell_angle_beta                  90.0000
_cell_angle_gamma                 90.0000

loop_
_atom_site_label
_atom_site_fract_x
_atom_site_fract_y
_atom_site_fract_z
_atom_site_occupancy
O1       0.75000    0.75000    0.75000   1.00
Zn1      0.71720    0.78280    0.78280   1.00
Zn1      0.78280    0.71720    0.78280   1.00
Zn1      0.78280    0.78280    0.71720   1.00
Zn1      0.71720    0.71720    0.71720   1.00
O2       0.72650    0.77350    0.83820   1.00
O2       0.72650    0.83820    0.77350   1.00
O2       0.66180    0.77350    0.77350   1.00
O2       0.77350    0.72650    0.83820   1.00
O2       0.83820    0.72650    0.77350   1.00
O2       0.77350    0.66180    0.77350   1.00
O2       0.77350    0.83820    0.72650   1.00
O2       0.83820    0.77350    0.72650   1.00
O2       0.77350    0.77350    0.66180   1.00
O2       0.66180    0.72650    0.72650   1.00
O2       0.72650    0.66180    0.72650   1.00
O2       0.72650    0.72650    0.66180   1.00
C1       0.75000    0.75000    0.85520   1.00
C1       0.75000    0.85520    0.75000   1.00
C1       0.64480    0.75000    0.75000   1.00
C1       0.85520    0.75000    0.75000   1.00
C1       0.75000    0.64480    0.75000   1.00
C1       0.75000    0.75000    0.64480   1.00
O1       0.25000    0.25000    0.75000   1.00
Zn1      0.21720    0.28280    0.78280   1.00
Zn1      0.28280    0.21720    0.78280   1.00
Zn1      0.28280    0.28280    0.71720   1.00
Zn1      0.21720    0.21720    0.71720   1.00
O2       0.22650    0.27350    0.83820   1.00
O2       0.22650    0.33820    0.77350   1.00
O2       0.16180    0.27350    0.77350   1.00
O2       0.27350    0.22650    0.83820   1.00
O2       0.33820    0.22650    0.77350   1.00
O2       0.27350    0.16180    0.77350   1.00
O2       0.27350    0.33820    0.72650   1.00
O2       0.33820    0.27350    0.72650   1.00
O2       0.27350    0.27350    0.66180   1.00
O2       0.16180    0.22650    0.72650   1.00
O2       0.22650    0.16180    0.72650   1.00
O2       0.22650    0.22650    0.66180   1.00
C1       0.25000    0.25000    0.85520   1.00
C1       0.25000    0.35520    0.75000   1.00
C1       0.14480    0.25000    0.75000   1.00
C1       0.35520    0.25000    0.75000   1.00
C1       0.25000    0.14480    0.75000   1.00
C1       0.25000    0.25000    0.64480   1.00
O1       0.25000    0.75000    0.25000   1.00
Zn1      0.21720    0.78280    0.28280   1.00
Zn1      0.28280    0.71720    0.28280   1.00
Zn1      0.28280    0.78280    0.21720   1.00
Zn1      0.21720    0.71720    0.21720   1.00
O2       0.22650    0.77350    0.33820   1.00
O2       0.22650    0.83820    0.27350   1.00
O2       0.16180    0.77350    0.27350   1.00
O2       0.27350    0.72650    0.33820   1.00
O2       0.33820    0.72650    0.27350   1.00
O2       0.27350    0.66180    0.27350   1.00
O2       0.27350    0.83820    0.22650   1.00
O2       0.33820    0.77350    0.22650   1.00
O2       0.27350    0.77350    0.16180   1.00
O2       0.16180    0.72650    0.22650   1.00
O2       0.22650    0.66180    0.22650   1.00
O2       0.22650    0.72650    0.16180   1.00
C1       0.25000    0.75000    0.35520   1.00
C1       0.25000    0.85520    0.25000   1.00
C1       0.14480    0.75000    0.25000   1.00
C1       0.35520    0.75000    0.25000   1.00
C1       0.25000    0.64480    0.25000   1.00
C1       0.25000    0.75000    0.14480   1.00
O1       0.75000    0.25000    0.25000   1.00
Zn1      0.71720    0.28280    0.28280   1.00
Zn1      0.78280    0.21720    0.28280   1.00
Zn1      0.78280    0.28280    0.21720   1.00
Zn1      0.71720    0.21720    0.21720   1.00
O2       0.72650    0.27350    0.33820   1.00
O2       0.72650    0.33820    0.27350   1.00
O2       0.66180    0.27350    0.27350   1.00
O2       0.77350    0.22650    0.33820   1.00
O2       0.83820    0.22650    0.27350   1.00
O2       0.77350    0.16180    0.27350   1.00
O2       0.77350    0.33820    0.22650   1.00
O2       0.83820    0.27350    0.22650   1.00
O2       0.77350    0.27350    0.16180   1.00
O2       0.66180    0.22650    0.22650   1.00
O2       0.72650    0.16180    0.22650   1.00
O2       0.72650    0.22650    0.16180   1.00
C1       0.75000    0.25000    0.35520   1.00
C1       0.75000    0.35520    0.25000   1.00
C1       0.64480    0.25000    0.25000   1.00
C1       0.85520    0.25000    0.25000   1.00
C1       0.75000    0.14480    0.25000   1.00
C1       0.75000    0.25000    0.14480   1.00
O1       0.25000    0.25000    0.25000   1.00
Zn1      0.28280    0.21720    0.21720   1.00
Zn1      0.21720    0.28280    0.21720   1.00
Zn1      0.21720    0.21720    0.28280   1.00
Zn1      0.28280    0.28280    0.28280   1.00
O2       0.27350    0.22650    0.16180   1.00
O2       0.27350    0.16180    0.22650   1.00
O2       0.33820    0.22650    0.22650   1.00
O2       0.22650    0.27350    0.16180   1.00
O2       0.16180    0.27350    0.22650   1.00
O2       0.22650    0.33820    0.22650   1.00
O2       0.22650    0.16180    0.27350   1.00
O2       0.16180    0.22650    0.27350   1.00
O2       0.22650    0.22650    0.33820   1.00
O2       0.33820    0.27350    0.27350   1.00
O2       0.27350    0.33820    0.27350   1.00
O2       0.27350    0.27350    0.33820   1.00
C1       0.25000    0.25000    0.14480   1.00
C1       0.25000    0.14480    0.25000   1.00
C1       0.35520    0.25000    0.25000   1.00
C1       0.14480    0.25000    0.25000   1.00
C1       0.25000    0.35520    0.25000   1.00
C1       0.25000    0.25000    0.35520   1.00
O1       0.75000    0.75000    0.25000   1.00
Zn1      0.78280    0.71720    0.21720   1.00
Zn1      0.71720    0.78280    0.21720   1.00
Zn1      0.71720    0.71720    0.28280   1.00
Zn1      0.78280    0.78280    0.28280   1.00
O2       0.77350    0.72650    0.16180   1.00
O2       0.77350    0.66180    0.22650   1.00
O2       0.83820    0.72650    0.22650   1.00
O2       0.72650    0.77350    0.16180   1.00
O2       0.66180    0.77350    0.22650   1.00
O2       0.72650    0.83820    0.22650   1.00
O2       0.72650    0.66180    0.27350   1.00
O2       0.66180    0.72650    0.27350   1.00
O2       0.72650    0.72650    0.33820   1.00
O2       0.83820    0.77350    0.27350   1.00
O2       0.77350    0.83820    0.27350   1.00
O2       0.77350    0.77350    0.33820   1.00
C1       0.75000    0.75000    0.14480   1.00
C1       0.75000    0.64480    0.25000   1.00
C1       0.85520    0.75000    0.25000   1.00
C1       0.64480    0.75000    0.25000   1.00
C1       0.75000    0.85520    0.25000   1.00
C1       0.75000    0.75000    0.35520   1.00
O1       0.75000    0.25000    0.75000   1.00
Zn1      0.78280    0.21720    0.71720   1.00
Zn1      0.71720    0.28280    0.71720   1.00
Zn1      0.71720    0.21720    0.78280   1.00
Zn1      0.78280    0.28280    0.78280   1.00
O2       0.77350    0.22650    0.66180   1.00
O2       0.77350    0.16180    0.72650   1.00
O2       0.83820    0.22650    0.72650   1.00
O2       0.72650    0.27350    0.66180   1.00
O2       0.66180    0.27350    0.72650   1.00
O2       0.72650    0.33820    0.72650   1.00
O2       0.72650    0.16180    0.77350   1.00
O2       0.66180    0.22650    0.77350   1.00
O2       0.72650    0.22650    0.83820   1.00
O2       0.83820    0.27350    0.77350   1.00
O2       0.77350    0.33820    0.77350   1.00
O2       0.77350    0.27350    0.83820   1.00
C1       0.75000    0.25000    0.64480   1.00
C1       0.75000    0.14480    0.75000   1.00
C1       0.85520    0.25000    0.75000   1.00
C1       0.64480    0.25000    0.75000   1.00
C1       0.75000    0.35520    0.75000   1.00
C1       0.75000    0.25000    0.85520   1.00
O1       0.25000    0.75000    0.75000   1.00
Zn1      0.28280    0.71720    0.71720   1.00
Zn1      0.21720    0.78280    0.71720   1.00
Zn1      0.21720    0.71720    0.78280   1.00
Zn1      0.28280    0.78280    0.78280   1.00
O2       0.27350    0.72650    0.66180   1.00
O2       0.27350    0.66180    0.72650   1.00
O2       0.33820    0.72650    0.72650   1.00
O2       0.22650    0.77350    0.66180   1.00
O2       0.16180    0.77350    0.72650   1.00
O2       0.22650    0.83820    0.72650   1.00
O2       0.22650    0.66180    0.77350   1.00
O2       0.16180    0.72650    0.77350   1.00
O2       0.22650    0.72650    0.83820   1.00
O2       0.33820    0.77350    0.77350   1.00
O2       0.27350    0.83820    0.77350   1.00
O2       0.27350    0.77350    0.83820   1.00
C1       0.25000    0.75000    0.64480   1.00
C1       0.25000    0.64480    0.75000   1.00
C1       0.35520    0.75000    0.75000   1.00
C1       0.14480    0.75000    0.75000   1.00
C1       0.25000    0.85520    0.75000   1.00
C1       0.25000    0.75000    0.85520   1.00
O1       1.00000    1.00000    1.00000   1.00
Zn1      0.96720    1.03280    1.03280   1.00
Zn1      1.03280    0.96720    1.03280   1.00
Zn1      1.03280    1.03280    0.96720   1.00
Zn1      0.96720    0.96720    0.96720   1.00
O2       0.97650    1.02350    1.08820   1.00
O2       0.97650    1.08820    1.02350   1.00
O2       0.91180    1.02350    1.02350   1.00
O2       1.02350    0.97650    1.08820   1.00
O2       1.08820    0.97650    1.02350   1.00
O2       1.02350    0.91180    1.02350   1.00
O2       1.02350    1.08820    0.97650   1.00
O2       1.08820    1.02350    0.97650   1.00
O2       1.02350    1.02350    0.91180   1.00
O2       0.91180    0.97650    0.97650   1.00
O2       0.97650    0.91180    0.97650   1.00
O2       0.97650    0.97650    0.91180   1.00
C1       1.00000    1.00000    1.10520   1.00
C1       1.00000    1.10520    1.00000   1.00
C1       0.89480    1.00000    1.00000   1.00
C1       1.10520    1.00000    1.00000   1.00
C1       1.00000    0.89480    1.00000   1.00
C1       1.00000    1.00000    0.89480   1.00
O1       0.50000    0.50000    1.00000   1.00
Zn1      0.46720    0.53280    1.03280   1.00
Zn1      0.53280    0.46720    1.03280   1.00
Zn1      0.53280    0.53280    0.96720   1.00
Zn1      0.46720    0.46720    0.96720   1.00
O2       0.47650    0.52350    1.08820   1.00
O2       0.47650    0.58820    1.02350   1.00
O2       0.41180    0.52350    1.02350   1.00
O2       0.52350    0.47650    1.08820   1.00
O2       0.58820    0.47650    1.02350   1.00
O2       0.52350    0.41180    1.02350   1.00
O2       0.52350    0.58820    0.97650   1.00
O2       0.58820    0.52350    0.97650   1.00
O2       0.52350    0.52350    0.91180   1.00
O2       0.41180    0.47650    0.97650   1.00
O2       0.47650    0.41180    0.97650   1.00
O2       0.47650    0.47650    0.91180   1.00
C1       0.50000    0.50000    1.10520   1.00
C1       0.50000    0.60520    1.00000   1.00
C1       0.39480    0.50000    1.00000   1.00
C1       0.60520    0.50000    1.00000   1.00
C1       0.50000    0.39480    1.00000   1.00
C1       0.50000    0.50000    0.89480   1.00
O1       0.50000    1.00000    0.50000   1.00
Zn1      0.46720    1.03280    0.53280   1.00
Zn1      0.53280    0.96720    0.53280   1.00
Zn1      0.53280    1.03280    0.46720   1.00
Zn1      0.46720    0.96720    0.46720   1.00
O2       0.47650    1.02350    0.58820   1.00
O2       0.47650    1.08820    0.52350   1.00
O2       0.41180    1.02350    0.52350   1.00
O2       0.52350    0.97650    0.58820   1.00
O2       0.58820    0.97650    0.52350   1.00
O2       0.52350    0.91180    0.52350   1.00
O2       0.52350    1.08820    0.47650   1.00
O2       0.58820    1.02350    0.47650   1.00
O2       0.52350    1.02350    0.41180   1.00
O2       0.41180    0.97650    0.47650   1.00
O2       0.47650    0.91180    0.47650   1.00
O2       0.47650    0.97650    0.41180   1.00
C1       0.50000    1.00000    0.60520   1.00
C1       0.50000    1.10520    0.50000   1.00
C1       0.39480    1.00000    0.50000   1.00
C1       0.60520    1.00000    0.50000   1.00
C1       0.50000    0.89480    0.50000   1.00
C1       0.50000    1.00000    0.39480   1.00
O1       1.00000    0.50000    0.50000   1.00
Zn1      0.96720    0.53280    0.53280   1.00
Zn1      1.03280    0.46720    0.53280   1.00
Zn1      1.03280    0.53280    0.46720   1.00
Zn1      0.96720    0.46720    0.46720   1.00
O2       0.97650    0.52350    0.58820   1.00
O2       0.97650    0.58820    0.52350   1.00
O2       0.91180    0.52350    0.52350   1.00
O2       1.02350    0.47650    0.58820   1.00
O2       1.08820    0.47650    0.52350   1.00
O2       1.02350    0.41180    0.52350   1.00
O2       1.02350    0.58820    0.47650   1.00
O2       1.08820    0.52350    0.47650   1.00
O2       1.02350    0.52350    0.41180   1.00
O2       0.91180    0.47650    0.47650   1.00
O2       0.97650    0.41180    0.47650   1.00
O2       0.97650    0.47650    0.41180   1.00
C1       1.00000    0.50000    0.60520   1.00
C1       1.00000    0.60520    0.50000   1.00
C1       0.89480    0.50000    0.50000   1.00
C1       1.10520    0.50000    0.50000   1.00
C1       1.00000    0.39480    0.50000   1.00
C1       1.00000    0.50000    0.39480   1.00
O1       0.50000    0.50000    0.50000   1.00
Zn1      0.53280    0.46720    0.46720   1.00
Zn1      0.46720    0.53280    0.46720   1.00
Zn1      0.46720    0.46720    0.53280   1.00
Zn1      0.53280    0.53280    0.53280   1.00
O2       0.52350    0.47650    0.41180   1.00
O2       0.52350    0.41180    0.47650   1.00
O2       0.58820    0.47650    0.47650   1.00
O2       0.47650    0.52350    0.41180   1.00
O2       0.41180    0.52350    0.47650   1.00
O2       0.47650    0.58820    0.47650   1.00
O2       0.47650    0.41180    0.52350   1.00
O2       0.41180    0.47650    0.52350   1.00
O2       0.47650    0.47650    0.58820   1.00
O2       0.58820    0.52350    0.52350   1.00
O2       0.52350    0.58820    0.52350   1.00
O2       0.52350    0.52350    0.58820   1.00
C1       0.50000    0.50000    0.39480   1.00
C1       0.50000    0.39480    0.50000   1.00
C1       0.60520    0.50000    0.50000   1.00
C1       0.39480    0.50000    0.50000   1.00
C1       0.50000    0.60520    0.50000   1.00
C1       0.50000    0.50000    0.60520   1.00
O1       1.00000    1.00000    0.50000   1.00
Zn1      1.03280    0.96720    0.46720   1.00
Zn1      0.96720    1.03280    0.46720   1.00
Zn1      0.96720    0.96720    0.53280   1.00
Zn1      1.03280    1.03280    0.53280   1.00
O2       1.02350    0.97650    0.41180   1.00
O2       1.02350    0.91180    0.47650   1.00
O2       1.08820    0.97650    0.47650   1.00
O2       0.97650    1.02350    0.41180   1.00
O2       0.91180    1.02350    0.47650   1.00
O2       0.97650    1.08820    0.47650   1.00
O2       0.97650    0.91180    0.52350   1.00
O2       0.91180    0.97650    0.52350   1.00
O2       0.97650    0.97650    0.58820   1.00
O2       1.08820    1.02350    0.52350   1.00
O2       1.02350    1.08820    0.52350   1.00
O2       1.02350    1.02350    0.58820   1.00
C1       1.00000    1.00000    0.39480   1.00
C1       1.00000    0.89480    0.50000   1.00
C1       1.10520    1.00000    0.50000   1.00
C1       0.89480    1.00000    0.50000   1.00
C1       1.00000    1.10520    0.50000   1.00
C1       1.00000    1.00000    0.60520   1.00
O1       1.00000    0.50000    1.00000   1.00
Zn1      1.03280    0.46720    0.96720   1.00
Zn1      0.96720    0.53280    0.96720   1.00
Zn1      0.96720    0.46720    1.03280   1.00
Zn1      1.03280    0.53280    1.03280   1.00
O2       1.02350    0.47650    0.91180   1.00
O2       1.02350    0.41180    0.97650   1.00
O2       1.08820    0.47650    0.97650   1.00
O2       0.97650    0.52350    0.91180   1.00
O2       0.91180    0.52350    0.97650   1.00
O2       0.97650    0.58820    0.97650   1.00
O2       0.97650    0.41180    1.02350   1.00
O2       0.91180    0.47650    1.02350   1.00
O2       0.97650    0.47650    1.08820   1.00
O2       1.08820    0.52350    1.02350   1.00
O2       1.02350    0.58820    1.02350   1.00
O2       1.02350    0.52350    1.08820   1.00
C1       1.00000    0.50000    0.89480   1.00
C1       1.00000    0.39480    1.00000   1.00
C1       1.10520    0.50000    1.00000   1.00
C1       0.89480    0.50000    1.00000   1.00
C1       1.00000    0.60520    1.00000   1.00
C1       1.00000    0.50000    1.10520   1.00
O1       0.50000    1.00000    1.00000   1.00
Zn1      0.53280    0.96720    0.96720   1.00
Zn1      0.46720    1.03280    0.96720   1.00
Zn1      0.46720    0.96720    1.03280   1.00
Zn1      0.53280    1.03280    1.03280   1.00
O2       0.52350    0.97650    0.91180   1.00
O2       0.52350    0.91180    0.97650   1.00
O2       0.58820    0.97650    0.97650   1.00
O2       0.47650    1.02350    0.91180   1.00
O2       0.41180    1.02350    0.97650   1.00
O2       0.47650    1.08820    0.97650   1.00
O2       0.47650    0.91180    1.02350   1.00
O2       0.41180    0.97650    1.02350   1.00
O2       0.47650    0.97650    1.08820   1.00
O2       0.58820    1.02350    1.02350   1.00
O2       0.52350    1.08820    1.02350   1.00
O2       0.52350    1.02350    1.08820   1.00
C1       0.50000    1.00000    0.89480   1.00
C1       0.50000    0.89480    1.00000   1.00
C1       0.60520    1.00000    1.00000   1.00
C1       0.39480    1.00000    1.00000   1.00
C1       0.50000    1.10520    1.00000   1.00
C1       0.50000    1.00000    1.10520   1.00
C5       0.73348    0.87570    1.13218   1.00
H2       0.70819    0.86240    1.14745   1.00
H2       0.72094    0.89669    1.11090   1.00
C5       0.75939    0.89717    1.16194   1.00
C5       0.74271    0.93784    1.17123   1.00
H2       0.78947    0.90050    1.15015   1.00
O3       0.81761    0.77109    0.98000   1.00
C4       0.74972    0.74968    1.02100   1.00
C3c      0.73868    0.78282    1.04243   1.00
H1       0.72983    0.80901    1.02725   1.00
C3d      0.76062    0.71567    1.04135   1.00
C3       0.73938    0.78295    1.08354   1.00
O2       0.72368    0.81469    1.10248   1.00
C3       0.76207    0.71594    1.08227   1.00
H1       0.77194    0.68962    1.09657   1.00
C2       0.75140    0.74933    1.10439   1.00
C5       0.84561    0.74089    0.97879   1.00
H2       0.85467    0.73373    0.94838   1.00
H2       0.83418    0.71374    0.99266   1.00
C5       0.88139    0.75478    1.00129   1.00
H2       0.87214    0.76298    1.03137   1.00
H2       0.89277    0.78168    0.98698   1.00
C5       0.91301    0.72290    1.00262   1.00
H2       0.92219    0.71438    0.97268   1.00
H2       0.90212    0.69652    1.01811   1.00
C5       0.94923    0.73807    1.02445   1.00
C5       0.74298    0.65909    1.01105   1.00
C5       0.75334    0.84218    1.11070   1.00
H2       0.72269    0.67441    0.99088   1.00
H2       0.72622    0.64911    1.03712   1.00
H2       0.76671    0.85286    1.08300   1.00
H2       0.77732    0.82962    1.12895   1.00
H2       0.76066    0.88108    1.19030   1.00
H2       0.71698    0.61747    0.94247   1.00
H2       0.70336    0.59320    0.98763   1.00
C2       0.75243    0.74887    0.89605   1.00
C3       0.71747    0.74004    0.91597   1.00
O2       0.68711    0.72188    0.89674   1.00
C3       0.78550    0.75973    0.91826   1.00
H1       0.81241    0.76764    0.90385   1.00
C3a      0.71658    0.74124    0.95713   1.00
H1       0.69025    0.73224    0.97202   1.00
C3b      0.78488    0.75968    0.95922   1.00
C4       0.75028    0.75032    0.97900   1.00
O3       0.77456    0.68328    1.02167   1.00
C5       0.65788    0.74926    0.88720   1.00
H2       0.64601    0.76367    0.91391   1.00
C5       0.62529    0.72694    0.86674   1.00
H2       0.66948    0.77220    0.86726   1.00
H2       0.60724    0.71210    0.88932   1.00
H2       0.63918    0.70346    0.84907   1.00
C5       0.59967    0.75320    0.84082   1.00
H2       0.58856    0.77819    0.85824   1.00
C5       0.56466    0.73023    0.82453   1.00
H2       0.61631    0.76439    0.81507   1.00
C5       0.75974    0.62357    0.99017   1.00
H2       0.77450    0.60471    1.01215   1.00
H2       0.78268    0.63378    0.96952   1.00
C5       0.72814    0.60059    0.96800   1.00
C5       0.74533    0.56219    0.95225   1.00
H2       0.71762    0.93485    1.19286   1.00
H2       0.76656    0.95684    1.18447   1.00
H2       0.73159    0.95191    1.14323   1.00
H2       0.96965    0.71266    1.03105   1.00
H2       0.96505    0.76037    1.00551   1.00
H2       0.93981    0.75241    1.05293   1.00
H2       0.55763    0.74102    0.79387   1.00
H2       0.57219    0.69786    0.82344   1.00
H2       0.53826    0.73482    0.84423   1.00
H2       0.77833    0.56233    0.95634   1.00
H2       0.73221    0.53654    0.96884   1.00
H2       0.73818    0.55929    0.91990   1.00
C5       0.87570    1.13218    0.73348   1.00
H2       0.86240    1.14745    0.70819   1.00
H2       0.89669    1.11090    0.72094   1.00
C5       0.89717    1.16194    0.75939   1.00
C5       0.93784    1.17123    0.74271   1.00
H2       0.90050    1.15015    0.78947   1.00
O3       0.77109    0.98000    0.81761   1.00
C4       0.74968    1.02100    0.74972   1.00
C3c      0.78282    1.04243    0.73868   1.00
H1       0.80901    1.02725    0.72983   1.00
C3d      0.71567    1.04135    0.76062   1.00
C3       0.78295    1.08354    0.73938   1.00
O2       0.81469    1.10248    0.72368   1.00
C3       0.71594    1.08227    0.76207   1.00
H1       0.68962    1.09657    0.77194   1.00
C2       0.74933    1.10439    0.75140   1.00
C5       0.74089    0.97879    0.84561   1.00
H2       0.73373    0.94838    0.85467   1.00
H2       0.71374    0.99266    0.83418   1.00
C5       0.75478    1.00129    0.88139   1.00
H2       0.76298    1.03137    0.87214   1.00
H2       0.78168    0.98698    0.89277   1.00
C5       0.72290    1.00262    0.91301   1.00
H2       0.71438    0.97268    0.92219   1.00
H2       0.69652    1.01811    0.90212   1.00
C5       0.73807    1.02445    0.94923   1.00
C5       0.65909    1.01105    0.74298   1.00
C5       0.84218    1.11070    0.75334   1.00
H2       0.67441    0.99088    0.72269   1.00
H2       0.64911    1.03712    0.72622   1.00
H2       0.85286    1.08300    0.76671   1.00
H2       0.82962    1.12895    0.77732   1.00
H2       0.88108    1.19030    0.76066   1.00
H2       0.61747    0.94247    0.71698   1.00
H2       0.59320    0.98763    0.70336   1.00
C2       0.74887    0.89605    0.75243   1.00
C3       0.74004    0.91597    0.71747   1.00
O2       0.72188    0.89674    0.68711   1.00
C3       0.75973    0.91826    0.78550   1.00
H1       0.76764    0.90385    0.81241   1.00
C3a      0.74124    0.95713    0.71658   1.00
H1       0.73224    0.97202    0.69025   1.00
C3b      0.75968    0.95922    0.78488   1.00
C4       0.75032    0.97900    0.75028   1.00
O3       0.68328    1.02167    0.77456   1.00
C5       0.74926    0.88720    0.65788   1.00
H2       0.76367    0.91391    0.64601   1.00
C5       0.72694    0.86674    0.62529   1.00
H2       0.77220    0.86726    0.66948   1.00
H2       0.71210    0.88932    0.60724   1.00
H2       0.70346    0.84907    0.63918   1.00
C5       0.75320    0.84082    0.59967   1.00
H2       0.77819    0.85824    0.58856   1.00
C5       0.73023    0.82453    0.56466   1.00
H2       0.76439    0.81507    0.61631   1.00
C5       0.62357    0.99017    0.75974   1.00
H2       0.60471    1.01215    0.77450   1.00
H2       0.63378    0.96952    0.78268   1.00
C5       0.60059    0.96800    0.72814   1.00
C5       0.56219    0.95225    0.74533   1.00
H2       0.93485    1.19286    0.71762   1.00
H2       0.95684    1.18447    0.76656   1.00
H2       0.95191    1.14323    0.73159   1.00
H2       0.71266    1.03105    0.96965   1.00
H2       0.76037    1.00551    0.96505   1.00
H2       0.75241    1.05293    0.93981   1.00
H2       0.74102    0.79387    0.55763   1.00
H2       0.69786    0.82344    0.57219   1.00
H2       0.73482    0.84423    0.53826   1.00
H2       0.56233    0.95634    0.77833   1.00
H2       0.53654    0.96884    0.73221   1.00
H2       0.55929    0.91990    0.73818   1.00
C5       0.36782    0.73348    0.62430   1.00
H2       0.35255    0.70819    0.63760   1.00
H2       0.38910    0.72094    0.60331   1.00
C5       0.33806    0.75939    0.60283   1.00
C5       0.32877    0.74271    0.56216   1.00
H2       0.34985    0.78947    0.59950   1.00
O3       0.52000    0.81761    0.72891   1.00
C4       0.47900    0.74972    0.75032   1.00
C3c      0.45757    0.73868    0.71718   1.00
H1       0.47275    0.72983    0.69099   1.00
C3d      0.45865    0.76062    0.78433   1.00
C3       0.41646    0.73938    0.71705   1.00
O2       0.39752    0.72368    0.68531   1.00
C3       0.41773    0.76207    0.78406   1.00
H1       0.40343    0.77194    0.81038   1.00
C2       0.39561    0.75140    0.75067   1.00
C5       0.52121    0.84561    0.75911   1.00
H2       0.55162    0.85467    0.76627   1.00
H2       0.50734    0.83418    0.78626   1.00
C5       0.49871    0.88139    0.74522   1.00
H2       0.46863    0.87214    0.73702   1.00
H2       0.51302    0.89277    0.71832   1.00
C5       0.49738    0.91301    0.77710   1.00
H2       0.52732    0.92219    0.78562   1.00
H2       0.48189    0.90212    0.80348   1.00
C5       0.47555    0.94923    0.76193   1.00
C5       0.48895    0.74298    0.84091   1.00
C5       0.38930    0.75334    0.65782   1.00
H2       0.50912    0.72269    0.82559   1.00
H2       0.46288    0.72622    0.85089   1.00
H2       0.41700    0.76671    0.64714   1.00
H2       0.37105    0.77732    0.67038   1.00
H2       0.30970    0.76066    0.61892   1.00
H2       0.55753    0.71698    0.88253   1.00
H2       0.51237    0.70336    0.90680   1.00
C2       0.60395    0.75243    0.75113   1.00
C3       0.58403    0.71747    0.75996   1.00
O2       0.60326    0.68711    0.77812   1.00
C3       0.58174    0.78550    0.74027   1.00
H1       0.59615    0.81241    0.73236   1.00
C3a      0.54287    0.71658    0.75876   1.00
H1       0.52798    0.69025    0.76776   1.00
C3b      0.54078    0.78488    0.74032   1.00
C4       0.52100    0.75028    0.74968   1.00
O3       0.47833    0.77456    0.81672   1.00
C5       0.61280    0.65788    0.75074   1.00
H2       0.58609    0.64601    0.73633   1.00
C5       0.63326    0.62529    0.77306   1.00
H2       0.63274    0.66948    0.72780   1.00
H2       0.61068    0.60724    0.78790   1.00
H2       0.65093    0.63918    0.79654   1.00
C5       0.65918    0.59967    0.74680   1.00
H2       0.64176    0.58856    0.72181   1.00
C5       0.67547    0.56466    0.76977   1.00
H2       0.68493    0.61631    0.73561   1.00
C5       0.50983    0.75974    0.87643   1.00
H2       0.48785    0.77450    0.89529   1.00
H2       0.53048    0.78268    0.86622   1.00
C5       0.53200    0.72814    0.89941   1.00
C5       0.54775    0.74533    0.93781   1.00
H2       0.30714    0.71762    0.56515   1.00
H2       0.31553    0.76656    0.54316   1.00
H2       0.35677    0.73159    0.54809   1.00
H2       0.46895    0.96965    0.78734   1.00
H2       0.49449    0.96505    0.73963   1.00
H2       0.44707    0.93981    0.74759   1.00
H2       0.70613    0.55763    0.75898   1.00
H2       0.67656    0.57219    0.80214   1.00
H2       0.65577    0.53826    0.76518   1.00
H2       0.54366    0.77833    0.93767   1.00
H2       0.53116    0.73221    0.96346   1.00
H2       0.58010    0.73818    0.94071   1.00
C5       1.13218    0.73348    0.87570   1.00
H2       1.14745    0.70819    0.86240   1.00
H2       1.11090    0.72094    0.89669   1.00
C5       1.16194    0.75939    0.89717   1.00
C5       1.17123    0.74271    0.93784   1.00
H2       1.15015    0.78947    0.90050   1.00
O3       0.98000    0.81761    0.77109   1.00
C4       1.02100    0.74972    0.74968   1.00
C3c      1.04243    0.73868    0.78282   1.00
H1       1.02725    0.72983    0.80901   1.00
C3d      1.04135    0.76062    0.71567   1.00
C3       1.08354    0.73938    0.78295   1.00
O2       1.10248    0.72368    0.81469   1.00
C3       1.08227    0.76207    0.71594   1.00
H1       1.09657    0.77194    0.68962   1.00
C2       1.10439    0.75140    0.74933   1.00
C5       0.97879    0.84561    0.74089   1.00
H2       0.94838    0.85467    0.73373   1.00
H2       0.99266    0.83418    0.71374   1.00
C5       1.00129    0.88139    0.75478   1.00
H2       1.03137    0.87214    0.76298   1.00
H2       0.98698    0.89277    0.78168   1.00
C5       1.00262    0.91301    0.72290   1.00
H2       0.97268    0.92219    0.71438   1.00
H2       1.01811    0.90212    0.69652   1.00
C5       1.02445    0.94923    0.73807   1.00
C5       1.01105    0.74298    0.65909   1.00
C5       1.11070    0.75334    0.84218   1.00
H2       0.99088    0.72269    0.67441   1.00
H2       1.03712    0.72622    0.64911   1.00
H2       1.08300    0.76671    0.85286   1.00
H2       1.12895    0.77732    0.82962   1.00
H2       1.19030    0.76066    0.88108   1.00
H2       0.94247    0.71698    0.61747   1.00
H2       0.98763    0.70336    0.59320   1.00
C2       0.89605    0.75243    0.74887   1.00
C3       0.91597    0.71747    0.74004   1.00
O2       0.89674    0.68711    0.72188   1.00
C3       0.91826    0.78550    0.75973   1.00
H1       0.90385    0.81241    0.76764   1.00
C3a      0.95713    0.71658    0.74124   1.00
H1       0.97202    0.69025    0.73224   1.00
C3b      0.95922    0.78488    0.75968   1.00
C4       0.97900    0.75028    0.75032   1.00
O3       1.02167    0.77456    0.68328   1.00
C5       0.88720    0.65788    0.74926   1.00
H2       0.91391    0.64601    0.76367   1.00
C5       0.86674    0.62529    0.72694   1.00
H2       0.86726    0.66948    0.77220   1.00
H2       0.88932    0.60724    0.71210   1.00
H2       0.84907    0.63918    0.70346   1.00
C5       0.84082    0.59967    0.75320   1.00
H2       0.85824    0.58856    0.77819   1.00
C5       0.82453    0.56466    0.73023   1.00
H2       0.81507    0.61631    0.76439   1.00
C5       0.99017    0.75974    0.62357   1.00
H2       1.01215    0.77450    0.60471   1.00
H2       0.96952    0.78268    0.63378   1.00
C5       0.96800    0.72814    0.60059   1.00
C5       0.95225    0.74533    0.56219   1.00
H2       1.19286    0.71762    0.93485   1.00
H2       1.18447    0.76656    0.95684   1.00
H2       1.14323    0.73159    0.95191   1.00
H2       1.03105    0.96965    0.71266   1.00
H2       1.00551    0.96505    0.76037   1.00
H2       1.05293    0.93981    0.75241   1.00
H2       0.79387    0.55763    0.74102   1.00
H2       0.82344    0.57219    0.69786   1.00
H2       0.84423    0.53826    0.73482   1.00
H2       0.95634    0.77833    0.56233   1.00
H2       0.96884    0.73221    0.53654   1.00
H2       0.91990    0.73818    0.55929   1.00
C5       0.62430    0.36782    0.73348   1.00
H2       0.63760    0.35255    0.70819   1.00
H2       0.60331    0.38910    0.72094   1.00
C5       0.60283    0.33806    0.75939   1.00
C5       0.56216    0.32877    0.74271   1.00
H2       0.59950    0.34985    0.78947   1.00
O3       0.72891    0.52000    0.81761   1.00
C4       0.75032    0.47900    0.74972   1.00
C3c      0.71718    0.45757    0.73868   1.00
H1       0.69099    0.47275    0.72983   1.00
C3d      0.78433    0.45865    0.76062   1.00
C3       0.71705    0.41646    0.73938   1.00
O2       0.68531    0.39752    0.72368   1.00
C3       0.78406    0.41773    0.76207   1.00
H1       0.81038    0.40343    0.77194   1.00
C2       0.75067    0.39561    0.75140   1.00
C5       0.75911    0.52121    0.84561   1.00
H2       0.76627    0.55162    0.85467   1.00
H2       0.78626    0.50734    0.83418   1.00
C5       0.74522    0.49871    0.88139   1.00
H2       0.73702    0.46863    0.87214   1.00
H2       0.71832    0.51302    0.89277   1.00
C5       0.77710    0.49738    0.91301   1.00
H2       0.78562    0.52732    0.92219   1.00
H2       0.80348    0.48189    0.90212   1.00
C5       0.76193    0.47555    0.94923   1.00
C5       0.84091    0.48895    0.74298   1.00
C5       0.65782    0.38930    0.75334   1.00
H2       0.82559    0.50912    0.72269   1.00
H2       0.85089    0.46288    0.72622   1.00
H2       0.64714    0.41700    0.76671   1.00
H2       0.67038    0.37105    0.77732   1.00
H2       0.61892    0.30970    0.76066   1.00
H2       0.88253    0.55753    0.71698   1.00
H2       0.90680    0.51237    0.70336   1.00
C2       0.75113    0.60395    0.75243   1.00
C3       0.75996    0.58403    0.71747   1.00
O2       0.77812    0.60326    0.68711   1.00
C3       0.74027    0.58174    0.78550   1.00
H1       0.73236    0.59615    0.81241   1.00
C3a      0.75876    0.54287    0.71658   1.00
H1       0.76776    0.52798    0.69025   1.00
C3b      0.74032    0.54078    0.78488   1.00
C4       0.74968    0.52100    0.75028   1.00
O3       0.81672    0.47833    0.77456   1.00
C5       0.75074    0.61280    0.65788   1.00
H2       0.73633    0.58609    0.64601   1.00
C5       0.77306    0.63326    0.62529   1.00
H2       0.72780    0.63274    0.66948   1.00
H2       0.78790    0.61068    0.60724   1.00
H2       0.79654    0.65093    0.63918   1.00
C5       0.74680    0.65918    0.59967   1.00
H2       0.72181    0.64176    0.58856   1.00
C5       0.76977    0.67547    0.56466   1.00
H2       0.73561    0.68493    0.61631   1.00
C5       0.87643    0.50983    0.75974   1.00
H2       0.89529    0.48785    0.77450   1.00
H2       0.86622    0.53048    0.78268   1.00
C5       0.89941    0.53200    0.72814   1.00
C5       0.93781    0.54775    0.74533   1.00
H2       0.56515    0.30714    0.71762   1.00
H2       0.54316    0.31553    0.76656   1.00
H2       0.54809    0.35677    0.73159   1.00
H2       0.78734    0.46895    0.96965   1.00
H2       0.73963    0.49449    0.96505   1.00
H2       0.74759    0.44707    0.93981   1.00
H2       0.75898    0.70613    0.55763   1.00
H2       0.80214    0.67656    0.57219   1.00
H2       0.76518    0.65577    0.53826   1.00
H2       0.93767    0.54366    0.77833   1.00
H2       0.96346    0.53116    0.73221   1.00
H2       0.94071    0.58010    0.73818   1.00
C5       0.73348    0.62430    0.36782   1.00
H2       0.70819    0.63760    0.35255   1.00
H2       0.72094    0.60331    0.38910   1.00
C5       0.75939    0.60283    0.33806   1.00
C5       0.74271    0.56216    0.32877   1.00
H2       0.78947    0.59950    0.34985   1.00
O3       0.81761    0.72891    0.52000   1.00
C4       0.74972    0.75032    0.47900   1.00
C3c      0.73868    0.71718    0.45757   1.00
H1       0.72983    0.69099    0.47275   1.00
C3d      0.76062    0.78433    0.45865   1.00
C3       0.73938    0.71705    0.41646   1.00
O2       0.72368    0.68531    0.39752   1.00
C3       0.76207    0.78406    0.41773   1.00
H1       0.77194    0.81038    0.40343   1.00
C2       0.75140    0.75067    0.39561   1.00
C5       0.84561    0.75911    0.52121   1.00
H2       0.85467    0.76627    0.55162   1.00
H2       0.83418    0.78626    0.50734   1.00
C5       0.88139    0.74522    0.49871   1.00
H2       0.87214    0.73702    0.46863   1.00
H2       0.89277    0.71832    0.51302   1.00
C5       0.91301    0.77710    0.49738   1.00
H2       0.92219    0.78562    0.52732   1.00
H2       0.90212    0.80348    0.48189   1.00
C5       0.94923    0.76193    0.47555   1.00
C5       0.74298    0.84091    0.48895   1.00
C5       0.75334    0.65782    0.38930   1.00
H2       0.72269    0.82559    0.50912   1.00
H2       0.72622    0.85089    0.46288   1.00
H2       0.76671    0.64714    0.41700   1.00
H2       0.77732    0.67038    0.37105   1.00
H2       0.76066    0.61892    0.30970   1.00
H2       0.71698    0.88253    0.55753   1.00
H2       0.70336    0.90680    0.51237   1.00
C2       0.75243    0.75113    0.60395   1.00
C3       0.71747    0.75996    0.58403   1.00
O2       0.68711    0.77812    0.60326   1.00
C3       0.78550    0.74027    0.58174   1.00
H1       0.81241    0.73236    0.59615   1.00
C3a      0.71658    0.75876    0.54287   1.00
H1       0.69025    0.76776    0.52798   1.00
C3b      0.78488    0.74032    0.54078   1.00
C4       0.75028    0.74968    0.52100   1.00
O3       0.77456    0.81672    0.47833   1.00
C5       0.65788    0.75074    0.61280   1.00
H2       0.64601    0.73633    0.58609   1.00
C5       0.62529    0.77306    0.63326   1.00
H2       0.66948    0.72780    0.63274   1.00
H2       0.60724    0.78790    0.61068   1.00
H2       0.63918    0.79654    0.65093   1.00
C5       0.59967    0.74680    0.65918   1.00
H2       0.58856    0.72181    0.64176   1.00
C5       0.56466    0.76977    0.67547   1.00
H2       0.61631    0.73561    0.68493   1.00
C5       0.75974    0.87643    0.50983   1.00
H2       0.77450    0.89529    0.48785   1.00
H2       0.78268    0.86622    0.53048   1.00
C5       0.72814    0.89941    0.53200   1.00
C5       0.74533    0.93781    0.54775   1.00
H2       0.71762    0.56515    0.30714   1.00
H2       0.76656    0.54316    0.31553   1.00
H2       0.73159    0.54809    0.35677   1.00
H2       0.96965    0.78734    0.46895   1.00
H2       0.96505    0.73963    0.49449   1.00
H2       0.93981    0.74759    0.44707   1.00
H2       0.55763    0.75898    0.70613   1.00
H2       0.57219    0.80214    0.67656   1.00
H2       0.53826    0.76518    0.65577   1.00
H2       0.77833    0.93767    0.54366   1.00
H2       0.73221    0.96346    0.53116   1.00
H2       0.73818    0.94071    0.58010   1.00
C5       0.23348    0.37570    1.13218   1.00
H2       0.20819    0.36240    1.14745   1.00
H2       0.22094    0.39669    1.11090   1.00
C5       0.25939    0.39717    1.16194   1.00
C5       0.24271    0.43784    1.17123   1.00
H2       0.28947    0.40050    1.15015   1.00
O3       0.31761    0.27109    0.98000   1.00
C4       0.24972    0.24968    1.02100   1.00
C3c      0.23868    0.28282    1.04243   1.00
H1       0.22983    0.30901    1.02725   1.00
C3d      0.26062    0.21567    1.04135   1.00
C3       0.23938    0.28295    1.08354   1.00
O2       0.22368    0.31469    1.10248   1.00
C3       0.26207    0.21594    1.08227   1.00
H1       0.27194    0.18962    1.09657   1.00
C2       0.25140    0.24933    1.10439   1.00
C5       0.34561    0.24089    0.97879   1.00
H2       0.35467    0.23373    0.94838   1.00
H2       0.33418    0.21374    0.99266   1.00
C5       0.38139    0.25478    1.00129   1.00
H2       0.37214    0.26298    1.03137   1.00
H2       0.39277    0.28168    0.98698   1.00
C5       0.41301    0.22290    1.00262   1.00
H2       0.42219    0.21438    0.97268   1.00
H2       0.40212    0.19652    1.01811   1.00
C5       0.44923    0.23807    1.02445   1.00
C5       0.24298    0.15909    1.01105   1.00
C5       0.25334    0.34218    1.11070   1.00
H2       0.22269    0.17441    0.99088   1.00
H2       0.22622    0.14911    1.03712   1.00
H2       0.26671    0.35286    1.08300   1.00
H2       0.27732    0.32962    1.12895   1.00
H2       0.26066    0.38108    1.19030   1.00
H2       0.21698    0.11747    0.94247   1.00
H2       0.20336    0.09320    0.98763   1.00
C2       0.25243    0.24887    0.89605   1.00
C3       0.21747    0.24004    0.91597   1.00
O2       0.18711    0.22188    0.89674   1.00
C3       0.28550    0.25973    0.91826   1.00
H1       0.31241    0.26764    0.90385   1.00
C3a      0.21658    0.24124    0.95713   1.00
H1       0.19025    0.23224    0.97202   1.00
C3b      0.28488    0.25968    0.95922   1.00
C4       0.25028    0.25032    0.97900   1.00
O3       0.27456    0.18328    1.02167   1.00
C5       0.15788    0.24926    0.88720   1.00
H2       0.14601    0.26367    0.91391   1.00
C5       0.12529    0.22694    0.86674   1.00
H2       0.16948    0.27220    0.86726   1.00
H2       0.10724    0.21210    0.88932   1.00
H2       0.13918    0.20346    0.84907   1.00
C5       0.09967    0.25320    0.84082   1.00
H2       0.08856    0.27819    0.85824   1.00
C5       0.06466    0.23023    0.82453   1.00
H2       0.11631    0.26439    0.81507   1.00
C5       0.25974    0.12357    0.99017   1.00
H2       0.27450    0.10471    1.01215   1.00
H2       0.28268    0.13378    0.96952   1.00
C5       0.22814    0.10059    0.96800   1.00
C5       0.24533    0.06219    0.95225   1.00
H2       0.21762    0.43485    1.19286   1.00
H2       0.26656    0.45684    1.18447   1.00
H2       0.23159    0.45191    1.14323   1.00
H2       0.46965    0.21266    1.03105   1.00
H2       0.46505    0.26037    1.00551   1.00
H2       0.43981    0.25241    1.05293   1.00
H2       0.05763    0.24102    0.79387   1.00
H2       0.07219    0.19786    0.82344   1.00
H2       0.03826    0.23482    0.84423   1.00
H2       0.27833    0.06233    0.95634   1.00
H2       0.23221    0.03654    0.96884   1.00
H2       0.23818    0.05929    0.91990   1.00
C5       0.37570    0.63218    0.73348   1.00
H2       0.36240    0.64745    0.70819   1.00
H2       0.39669    0.61090    0.72094   1.00
C5       0.39717    0.66194    0.75939   1.00
C5       0.43784    0.67123    0.74271   1.00
H2       0.40050    0.65015    0.78947   1.00
O3       0.27109    0.48000    0.81761   1.00
C4       0.24968    0.52100    0.74972   1.00
C3c      0.28282    0.54243    0.73868   1.00
H1       0.30901    0.52725    0.72983   1.00
C3d      0.21567    0.54135    0.76062   1.00
C3       0.28295    0.58354    0.73938   1.00
O2       0.31469    0.60248    0.72368   1.00
C3       0.21594    0.58227    0.76207   1.00
H1       0.18962    0.59657    0.77194   1.00
C2       0.24933    0.60439    0.75140   1.00
C5       0.24089    0.47879    0.84561   1.00
H2       0.23373    0.44838    0.85467   1.00
H2       0.21374    0.49266    0.83418   1.00
C5       0.25478    0.50129    0.88139   1.00
H2       0.26298    0.53137    0.87214   1.00
H2       0.28168    0.48698    0.89277   1.00
C5       0.22290    0.50262    0.91301   1.00
H2       0.21438    0.47268    0.92219   1.00
H2       0.19652    0.51811    0.90212   1.00
C5       0.23807    0.52445    0.94923   1.00
C5       0.15909    0.51105    0.74298   1.00
C5       0.34218    0.61070    0.75334   1.00
H2       0.17441    0.49088    0.72269   1.00
H2       0.14911    0.53712    0.72622   1.00
H2       0.35286    0.58300    0.76671   1.00
H2       0.32962    0.62895    0.77732   1.00
H2       0.38108    0.69030    0.76066   1.00
H2       0.11747    0.44247    0.71698   1.00
H2       0.09320    0.48763    0.70336   1.00
C2       0.24887    0.39605    0.75243   1.00
C3       0.24004    0.41597    0.71747   1.00
O2       0.22188    0.39674    0.68711   1.00
C3       0.25973    0.41826    0.78550   1.00
H1       0.26764    0.40385    0.81241   1.00
C3a      0.24124    0.45713    0.71658   1.00
H1       0.23224    0.47202    0.69025   1.00
C3b      0.25968    0.45922    0.78488   1.00
C4       0.25032    0.47900    0.75028   1.00
O3       0.18328    0.52167    0.77456   1.00
C5       0.24926    0.38720    0.65788   1.00
H2       0.26367    0.41391    0.64601   1.00
C5       0.22694    0.36674    0.62529   1.00
H2       0.27220    0.36726    0.66948   1.00
H2       0.21210    0.38932    0.60724   1.00
H2       0.20346    0.34907    0.63918   1.00
C5       0.25320    0.34082    0.59967   1.00
H2       0.27819    0.35824    0.58856   1.00
C5       0.23023    0.32453    0.56466   1.00
H2       0.26439    0.31507    0.61631   1.00
C5       0.12357    0.49017    0.75974   1.00
H2       0.10471    0.51215    0.77450   1.00
H2       0.13378    0.46952    0.78268   1.00
C5       0.10059    0.46800    0.72814   1.00
C5       0.06219    0.45225    0.74533   1.00
H2       0.43485    0.69286    0.71762   1.00
H2       0.45684    0.68447    0.76656   1.00
H2       0.45191    0.64323    0.73159   1.00
H2       0.21266    0.53105    0.96965   1.00
H2       0.26037    0.50551    0.96505   1.00
H2       0.25241    0.55293    0.93981   1.00
H2       0.24102    0.29387    0.55763   1.00
H2       0.19786    0.32344    0.57219   1.00
H2       0.23482    0.34423    0.53826   1.00
H2       0.06233    0.45634    0.77833   1.00
H2       0.03654    0.46884    0.73221   1.00
H2       0.05929    0.41990    0.73818   1.00
C5       -0.13218   0.23348    0.62430   1.00
H2       -0.14745   0.20819    0.63760   1.00
H2       -0.11090   0.22094    0.60331   1.00
C5       -0.16194   0.25939    0.60283   1.00
C5       -0.17123   0.24271    0.56216   1.00
H2       -0.15015   0.28947    0.59950   1.00
O3       0.02000    0.31761    0.72891   1.00
C4       -0.02100   0.24972    0.75032   1.00
C3c      -0.04243   0.23868    0.71718   1.00
H1       -0.02725   0.22983    0.69099   1.00
C3d      -0.04135   0.26062    0.78433   1.00
C3       -0.08354   0.23938    0.71705   1.00
O2       -0.10248   0.22368    0.68531   1.00
C3       -0.08227   0.26207    0.78406   1.00
H1       -0.09657   0.27194    0.81038   1.00
C2       -0.10439   0.25140    0.75067   1.00
C5       0.02121    0.34561    0.75911   1.00
H2       0.05162    0.35467    0.76627   1.00
H2       0.00734    0.33418    0.78626   1.00
C5       -0.00129   0.38139    0.74522   1.00
H2       -0.03137   0.37214    0.73702   1.00
H2       0.01302    0.39277    0.71832   1.00
C5       -0.00262   0.41301    0.77710   1.00
H2       0.02732    0.42219    0.78562   1.00
H2       -0.01811   0.40212    0.80348   1.00
C5       -0.02445   0.44923    0.76193   1.00
C5       -0.01105   0.24298    0.84091   1.00
C5       -0.11070   0.25334    0.65782   1.00
H2       0.00912    0.22269    0.82559   1.00
H2       -0.03712   0.22622    0.85089   1.00
H2       -0.08300   0.26671    0.64714   1.00
H2       -0.12895   0.27732    0.67038   1.00
H2       -0.19030   0.26066    0.61892   1.00
H2       0.05753    0.21698    0.88253   1.00
H2       0.01237    0.20336    0.90680   1.00
C2       0.10395    0.25243    0.75113   1.00
C3       0.08403    0.21747    0.75996   1.00
O2       0.10326    0.18711    0.77812   1.00
C3       0.08174    0.28550    0.74027   1.00
H1       0.09615    0.31241    0.73236   1.00
C3a      0.04287    0.21658    0.75876   1.00
H1       0.02798    0.19025    0.76776   1.00
C3b      0.04078    0.28488    0.74032   1.00
C4       0.02100    0.25028    0.74968   1.00
O3       -0.02167   0.27456    0.81672   1.00
C5       0.11280    0.15788    0.75074   1.00
H2       0.08609    0.14601    0.73633   1.00
C5       0.13326    0.12529    0.77306   1.00
H2       0.13274    0.16948    0.72780   1.00
H2       0.11068    0.10724    0.78790   1.00
H2       0.15093    0.13918    0.79654   1.00
C5       0.15918    0.09967    0.74680   1.00
H2       0.14176    0.08856    0.72181   1.00
C5       0.17547    0.06466    0.76977   1.00
H2       0.18493    0.11631    0.73561   1.00
C5       0.00983    0.25974    0.87643   1.00
H2       -0.01215   0.27450    0.89529   1.00
H2       0.03048    0.28268    0.86622   1.00
C5       0.03200    0.22814    0.89941   1.00
C5       0.04775    0.24533    0.93781   1.00
H2       -0.19286   0.21762    0.56515   1.00
H2       -0.18447   0.26656    0.54316   1.00
H2       -0.14323   0.23159    0.54809   1.00
H2       -0.03105   0.46965    0.78734   1.00
H2       -0.00551   0.46505    0.73963   1.00
H2       -0.05293   0.43981    0.74759   1.00
H2       0.20613    0.05763    0.75898   1.00
H2       0.17656    0.07219    0.80214   1.00
H2       0.15577    0.03826    0.76518   1.00
H2       0.04366    0.27833    0.93767   1.00
H2       0.03116    0.23221    0.96346   1.00
H2       0.08010    0.23818    0.94071   1.00
C5       0.63218    0.23348    0.87570   1.00
H2       0.64745    0.20819    0.86240   1.00
H2       0.61090    0.22094    0.89669   1.00
C5       0.66194    0.25939    0.89717   1.00
C5       0.67123    0.24271    0.93784   1.00
H2       0.65015    0.28947    0.90050   1.00
O3       0.48000    0.31761    0.77109   1.00
C4       0.52100    0.24972    0.74968   1.00
C3c      0.54243    0.23868    0.78282   1.00
H1       0.52725    0.22983    0.80901   1.00
C3d      0.54135    0.26062    0.71567   1.00
C3       0.58354    0.23938    0.78295   1.00
O2       0.60248    0.22368    0.81469   1.00
C3       0.58227    0.26207    0.71594   1.00
H1       0.59657    0.27194    0.68962   1.00
C2       0.60439    0.25140    0.74933   1.00
C5       0.47879    0.34561    0.74089   1.00
H2       0.44838    0.35467    0.73373   1.00
H2       0.49266    0.33418    0.71374   1.00
C5       0.50129    0.38139    0.75478   1.00
H2       0.53137    0.37214    0.76298   1.00
H2       0.48698    0.39277    0.78168   1.00
C5       0.50262    0.41301    0.72290   1.00
H2       0.47268    0.42219    0.71438   1.00
H2       0.51811    0.40212    0.69652   1.00
C5       0.52445    0.44923    0.73807   1.00
C5       0.51105    0.24298    0.65909   1.00
C5       0.61070    0.25334    0.84218   1.00
H2       0.49088    0.22269    0.67441   1.00
H2       0.53712    0.22622    0.64911   1.00
H2       0.58300    0.26671    0.85286   1.00
H2       0.62895    0.27732    0.82962   1.00
H2       0.69030    0.26066    0.88108   1.00
H2       0.44247    0.21698    0.61747   1.00
H2       0.48763    0.20336    0.59320   1.00
C2       0.39605    0.25243    0.74887   1.00
C3       0.41597    0.21747    0.74004   1.00
O2       0.39674    0.18711    0.72188   1.00
C3       0.41826    0.28550    0.75973   1.00
H1       0.40385    0.31241    0.76764   1.00
C3a      0.45713    0.21658    0.74124   1.00
H1       0.47202    0.19025    0.73224   1.00
C3b      0.45922    0.28488    0.75968   1.00
C4       0.47900    0.25028    0.75032   1.00
O3       0.52167    0.27456    0.68328   1.00
C5       0.38720    0.15788    0.74926   1.00
H2       0.41391    0.14601    0.76367   1.00
C5       0.36674    0.12529    0.72694   1.00
H2       0.36726    0.16948    0.77220   1.00
H2       0.38932    0.10724    0.71210   1.00
H2       0.34907    0.13918    0.70346   1.00
C5       0.34082    0.09967    0.75320   1.00
H2       0.35824    0.08856    0.77819   1.00
C5       0.32453    0.06466    0.73023   1.00
H2       0.31507    0.11631    0.76439   1.00
C5       0.49017    0.25974    0.62357   1.00
H2       0.51215    0.27450    0.60471   1.00
H2       0.46952    0.28268    0.63378   1.00
C5       0.46800    0.22814    0.60059   1.00
C5       0.45225    0.24533    0.56219   1.00
H2       0.69286    0.21762    0.93485   1.00
H2       0.68447    0.26656    0.95684   1.00
H2       0.64323    0.23159    0.95191   1.00
H2       0.53105    0.46965    0.71266   1.00
H2       0.50551    0.46505    0.76037   1.00
H2       0.55293    0.43981    0.75241   1.00
H2       0.29387    0.05763    0.74102   1.00
H2       0.32344    0.07219    0.69786   1.00
H2       0.34423    0.03826    0.73482   1.00
H2       0.45634    0.27833    0.56233   1.00
H2       0.46884    0.23221    0.53654   1.00
H2       0.41990    0.23818    0.55929   1.00
C5       0.12430    -0.13218   0.73348   1.00
H2       0.13760    -0.14745   0.70819   1.00
H2       0.10331    -0.11090   0.72094   1.00
C5       0.10283    -0.16194   0.75939   1.00
C5       0.06216    -0.17123   0.74271   1.00
H2       0.09950    -0.15015   0.78947   1.00
O3       0.22891    0.02000    0.81761   1.00
C4       0.25032    -0.02100   0.74972   1.00
C3c      0.21718    -0.04243   0.73868   1.00
H1       0.19099    -0.02725   0.72983   1.00
C3d      0.28433    -0.04135   0.76062   1.00
C3       0.21705    -0.08354   0.73938   1.00
O2       0.18531    -0.10248   0.72368   1.00
C3       0.28406    -0.08227   0.76207   1.00
H1       0.31038    -0.09657   0.77194   1.00
C2       0.25067    -0.10439   0.75140   1.00
C5       0.25911    0.02121    0.84561   1.00
H2       0.26627    0.05162    0.85467   1.00
H2       0.28626    0.00734    0.83418   1.00
C5       0.24522    -0.00129   0.88139   1.00
H2       0.23702    -0.03137   0.87214   1.00
H2       0.21832    0.01302    0.89277   1.00
C5       0.27710    -0.00262   0.91301   1.00
H2       0.28562    0.02732    0.92219   1.00
H2       0.30348    -0.01811   0.90212   1.00
C5       0.26193    -0.02445   0.94923   1.00
C5       0.34091    -0.01105   0.74298   1.00
C5       0.15782    -0.11070   0.75334   1.00
H2       0.32559    0.00912    0.72269   1.00
H2       0.35089    -0.03712   0.72622   1.00
H2       0.14714    -0.08300   0.76671   1.00
H2       0.17038    -0.12895   0.77732   1.00
H2       0.11892    -0.19030   0.76066   1.00
H2       0.38253    0.05753    0.71698   1.00
H2       0.40680    0.01237    0.70336   1.00
C2       0.25113    0.10395    0.75243   1.00
C3       0.25996    0.08403    0.71747   1.00
O2       0.27812    0.10326    0.68711   1.00
C3       0.24027    0.08174    0.78550   1.00
H1       0.23236    0.09615    0.81241   1.00
C3a      0.25876    0.04287    0.71658   1.00
H1       0.26776    0.02798    0.69025   1.00
C3b      0.24032    0.04078    0.78488   1.00
C4       0.24968    0.02100    0.75028   1.00
O3       0.31672    -0.02167   0.77456   1.00
C5       0.25074    0.11280    0.65788   1.00
H2       0.23633    0.08609    0.64601   1.00
C5       0.27306    0.13326    0.62529   1.00
H2       0.22780    0.13274    0.66948   1.00
H2       0.28790    0.11068    0.60724   1.00
H2       0.29654    0.15093    0.63918   1.00
C5       0.24680    0.15918    0.59967   1.00
H2       0.22181    0.14176    0.58856   1.00
C5       0.26977    0.17547    0.56466   1.00
H2       0.23561    0.18493    0.61631   1.00
C5       0.37643    0.00983    0.75974   1.00
H2       0.39529    -0.01215   0.77450   1.00
H2       0.36622    0.03048    0.78268   1.00
C5       0.39941    0.03200    0.72814   1.00
C5       0.43781    0.04775    0.74533   1.00
H2       0.06515    -0.19286   0.71762   1.00
H2       0.04316    -0.18447   0.76656   1.00
H2       0.04809    -0.14323   0.73159   1.00
H2       0.28734    -0.03105   0.96965   1.00
H2       0.23963    -0.00551   0.96505   1.00
H2       0.24759    -0.05293   0.93981   1.00
H2       0.25898    0.20613    0.55763   1.00
H2       0.30214    0.17656    0.57219   1.00
H2       0.26518    0.15577    0.53826   1.00
H2       0.43767    0.04366    0.77833   1.00
H2       0.46346    0.03116    0.73221   1.00
H2       0.44071    0.08010    0.73818   1.00
C5       0.23348    0.12430    0.36782   1.00
H2       0.20819    0.13760    0.35255   1.00
H2       0.22094    0.10331    0.38910   1.00
C5       0.25939    0.10283    0.33806   1.00
C5       0.24271    0.06216    0.32877   1.00
H2       0.28947    0.09950    0.34985   1.00
O3       0.31761    0.22891    0.52000   1.00
C4       0.24972    0.25032    0.47900   1.00
C3c      0.23868    0.21718    0.45757   1.00
H1       0.22983    0.19099    0.47275   1.00
C3d      0.26062    0.28433    0.45865   1.00
C3       0.23938    0.21705    0.41646   1.00
O2       0.22368    0.18531    0.39752   1.00
C3       0.26207    0.28406    0.41773   1.00
H1       0.27194    0.31038    0.40343   1.00
C2       0.25140    0.25067    0.39561   1.00
C5       0.34561    0.25911    0.52121   1.00
H2       0.35467    0.26627    0.55162   1.00
H2       0.33418    0.28626    0.50734   1.00
C5       0.38139    0.24522    0.49871   1.00
H2       0.37214    0.23702    0.46863   1.00
H2       0.39277    0.21832    0.51302   1.00
C5       0.41301    0.27710    0.49738   1.00
H2       0.42219    0.28562    0.52732   1.00
H2       0.40212    0.30348    0.48189   1.00
C5       0.44923    0.26193    0.47555   1.00
C5       0.24298    0.34091    0.48895   1.00
C5       0.25334    0.15782    0.38930   1.00
H2       0.22269    0.32559    0.50912   1.00
H2       0.22622    0.35089    0.46288   1.00
H2       0.26671    0.14714    0.41700   1.00
H2       0.27732    0.17038    0.37105   1.00
H2       0.26066    0.11892    0.30970   1.00
H2       0.21698    0.38253    0.55753   1.00
H2       0.20336    0.40680    0.51237   1.00
C2       0.25243    0.25113    0.60395   1.00
C3       0.21747    0.25996    0.58403   1.00
O2       0.18711    0.27812    0.60326   1.00
C3       0.28550    0.24027    0.58174   1.00
H1       0.31241    0.23236    0.59615   1.00
C3a      0.21658    0.25876    0.54287   1.00
H1       0.19025    0.26776    0.52798   1.00
C3b      0.28488    0.24032    0.54078   1.00
C4       0.25028    0.24968    0.52100   1.00
O3       0.27456    0.31672    0.47833   1.00
C5       0.15788    0.25074    0.61280   1.00
H2       0.14601    0.23633    0.58609   1.00
C5       0.12529    0.27306    0.63326   1.00
H2       0.16948    0.22780    0.63274   1.00
H2       0.10724    0.28790    0.61068   1.00
H2       0.13918    0.29654    0.65093   1.00
C5       0.09967    0.24680    0.65918   1.00
H2       0.08856    0.22181    0.64176   1.00
C5       0.06466    0.26977    0.67547   1.00
H2       0.11631    0.23561    0.68493   1.00
C5       0.25974    0.37643    0.50983   1.00
H2       0.27450    0.39529    0.48785   1.00
H2       0.28268    0.36622    0.53048   1.00
C5       0.22814    0.39941    0.53200   1.00
C5       0.24533    0.43781    0.54775   1.00
H2       0.21762    0.06515    0.30714   1.00
H2       0.26656    0.04316    0.31553   1.00
H2       0.23159    0.04809    0.35677   1.00
H2       0.46965    0.28734    0.46895   1.00
H2       0.46505    0.23963    0.49449   1.00
H2       0.43981    0.24759    0.44707   1.00
H2       0.05763    0.25898    0.70613   1.00
H2       0.07219    0.30214    0.67656   1.00
H2       0.03826    0.26518    0.65577   1.00
H2       0.27833    0.43767    0.54366   1.00
H2       0.23221    0.46346    0.53116   1.00
H2       0.23818    0.44071    0.58010   1.00
C5       0.23348    0.87570    0.63218   1.00
H2       0.20819    0.86240    0.64745   1.00
H2       0.22094    0.89669    0.61090   1.00
C5       0.25939    0.89717    0.66194   1.00
C5       0.24271    0.93784    0.67123   1.00
H2       0.28947    0.90050    0.65015   1.00
O3       0.31761    0.77109    0.48000   1.00
C4       0.24972    0.74968    0.52100   1.00
C3c      0.23868    0.78282    0.54243   1.00
H1       0.22983    0.80901    0.52725   1.00
C3d      0.26062    0.71567    0.54135   1.00
C3       0.23938    0.78295    0.58354   1.00
O2       0.22368    0.81469    0.60248   1.00
C3       0.26207    0.71594    0.58227   1.00
H1       0.27194    0.68962    0.59657   1.00
C2       0.25140    0.74933    0.60439   1.00
C5       0.34561    0.74089    0.47879   1.00
H2       0.35467    0.73373    0.44838   1.00
H2       0.33418    0.71374    0.49266   1.00
C5       0.38139    0.75478    0.50129   1.00
H2       0.37214    0.76298    0.53137   1.00
H2       0.39277    0.78168    0.48698   1.00
C5       0.41301    0.72290    0.50262   1.00
H2       0.42219    0.71438    0.47268   1.00
H2       0.40212    0.69652    0.51811   1.00
C5       0.44923    0.73807    0.52445   1.00
C5       0.24298    0.65909    0.51105   1.00
C5       0.25334    0.84218    0.61070   1.00
H2       0.22269    0.67441    0.49088   1.00
H2       0.22622    0.64911    0.53712   1.00
H2       0.26671    0.85286    0.58300   1.00
H2       0.27732    0.82962    0.62895   1.00
H2       0.26066    0.88108    0.69030   1.00
H2       0.21698    0.61747    0.44247   1.00
H2       0.20336    0.59320    0.48763   1.00
C2       0.25243    0.74887    0.39605   1.00
C3       0.21747    0.74004    0.41597   1.00
O2       0.18711    0.72188    0.39674   1.00
C3       0.28550    0.75973    0.41826   1.00
H1       0.31241    0.76764    0.40385   1.00
C3a      0.21658    0.74124    0.45713   1.00
H1       0.19025    0.73224    0.47202   1.00
C3b      0.28488    0.75968    0.45922   1.00
C4       0.25028    0.75032    0.47900   1.00
O3       0.27456    0.68328    0.52167   1.00
C5       0.15788    0.74926    0.38720   1.00
H2       0.14601    0.76367    0.41391   1.00
C5       0.12529    0.72694    0.36674   1.00
H2       0.16948    0.77220    0.36726   1.00
H2       0.10724    0.71210    0.38932   1.00
H2       0.13918    0.70346    0.34907   1.00
C5       0.09967    0.75320    0.34082   1.00
H2       0.08856    0.77819    0.35824   1.00
C5       0.06466    0.73023    0.32453   1.00
H2       0.11631    0.76439    0.31507   1.00
C5       0.25974    0.62357    0.49017   1.00
H2       0.27450    0.60471    0.51215   1.00
H2       0.28268    0.63378    0.46952   1.00
C5       0.22814    0.60059    0.46800   1.00
C5       0.24533    0.56219    0.45225   1.00
H2       0.21762    0.93485    0.69286   1.00
H2       0.26656    0.95684    0.68447   1.00
H2       0.23159    0.95191    0.64323   1.00
H2       0.46965    0.71266    0.53105   1.00
H2       0.46505    0.76037    0.50551   1.00
H2       0.43981    0.75241    0.55293   1.00
H2       0.05763    0.74102    0.29387   1.00
H2       0.07219    0.69786    0.32344   1.00
H2       0.03826    0.73482    0.34423   1.00
H2       0.27833    0.56233    0.45634   1.00
H2       0.23221    0.53654    0.46884   1.00
H2       0.23818    0.55929    0.41990   1.00
C5       0.37570    1.13218    0.23348   1.00
H2       0.36240    1.14745    0.20819   1.00
H2       0.39669    1.11090    0.22094   1.00
C5       0.39717    1.16194    0.25939   1.00
C5       0.43784    1.17123    0.24271   1.00
H2       0.40050    1.15015    0.28947   1.00
O3       0.27109    0.98000    0.31761   1.00
C4       0.24968    1.02100    0.24972   1.00
C3c      0.28282    1.04243    0.23868   1.00
H1       0.30901    1.02725    0.22983   1.00
C3d      0.21567    1.04135    0.26062   1.00
C3       0.28295    1.08354    0.23938   1.00
O2       0.31469    1.10248    0.22368   1.00
C3       0.21594    1.08227    0.26207   1.00
H1       0.18962    1.09657    0.27194   1.00
C2       0.24933    1.10439    0.25140   1.00
C5       0.24089    0.97879    0.34561   1.00
H2       0.23373    0.94838    0.35467   1.00
H2       0.21374    0.99266    0.33418   1.00
C5       0.25478    1.00129    0.38139   1.00
H2       0.26298    1.03137    0.37214   1.00
H2       0.28168    0.98698    0.39277   1.00
C5       0.22290    1.00262    0.41301   1.00
H2       0.21438    0.97268    0.42219   1.00
H2       0.19652    1.01811    0.40212   1.00
C5       0.23807    1.02445    0.44923   1.00
C5       0.15909    1.01105    0.24298   1.00
C5       0.34218    1.11070    0.25334   1.00
H2       0.17441    0.99088    0.22269   1.00
H2       0.14911    1.03712    0.22622   1.00
H2       0.35286    1.08300    0.26671   1.00
H2       0.32962    1.12895    0.27732   1.00
H2       0.38108    1.19030    0.26066   1.00
H2       0.11747    0.94247    0.21698   1.00
H2       0.09320    0.98763    0.20336   1.00
C2       0.24887    0.89605    0.25243   1.00
C3       0.24004    0.91597    0.21747   1.00
O2       0.22188    0.89674    0.18711   1.00
C3       0.25973    0.91826    0.28550   1.00
H1       0.26764    0.90385    0.31241   1.00
C3a      0.24124    0.95713    0.21658   1.00
H1       0.23224    0.97202    0.19025   1.00
C3b      0.25968    0.95922    0.28488   1.00
C4       0.25032    0.97900    0.25028   1.00
O3       0.18328    1.02167    0.27456   1.00
C5       0.24926    0.88720    0.15788   1.00
H2       0.26367    0.91391    0.14601   1.00
C5       0.22694    0.86674    0.12529   1.00
H2       0.27220    0.86726    0.16948   1.00
H2       0.21210    0.88932    0.10724   1.00
H2       0.20346    0.84907    0.13918   1.00
C5       0.25320    0.84082    0.09967   1.00
H2       0.27819    0.85824    0.08856   1.00
C5       0.23023    0.82453    0.06466   1.00
H2       0.26439    0.81507    0.11631   1.00
C5       0.12357    0.99017    0.25974   1.00
H2       0.10471    1.01215    0.27450   1.00
H2       0.13378    0.96952    0.28268   1.00
C5       0.10059    0.96800    0.22814   1.00
C5       0.06219    0.95225    0.24533   1.00
H2       0.43485    1.19286    0.21762   1.00
H2       0.45684    1.18447    0.26656   1.00
H2       0.45191    1.14323    0.23159   1.00
H2       0.21266    1.03105    0.46965   1.00
H2       0.26037    1.00551    0.46505   1.00
H2       0.25241    1.05293    0.43981   1.00
H2       0.24102    0.79387    0.05763   1.00
H2       0.19786    0.82344    0.07219   1.00
H2       0.23482    0.84423    0.03826   1.00
H2       0.06233    0.95634    0.27833   1.00
H2       0.03654    0.96884    0.23221   1.00
H2       0.05929    0.91990    0.23818   1.00
C5       -0.13218   0.73348    0.12430   1.00
H2       -0.14745   0.70819    0.13760   1.00
H2       -0.11090   0.72094    0.10331   1.00
C5       -0.16194   0.75939    0.10283   1.00
C5       -0.17123   0.74271    0.06216   1.00
H2       -0.15015   0.78947    0.09950   1.00
O3       0.02000    0.81761    0.22891   1.00
C4       -0.02100   0.74972    0.25032   1.00
C3c      -0.04243   0.73868    0.21718   1.00
H1       -0.02725   0.72983    0.19099   1.00
C3d      -0.04135   0.76062    0.28433   1.00
C3       -0.08354   0.73938    0.21705   1.00
O2       -0.10248   0.72368    0.18531   1.00
C3       -0.08227   0.76207    0.28406   1.00
H1       -0.09657   0.77194    0.31038   1.00
C2       -0.10439   0.75140    0.25067   1.00
C5       0.02121    0.84561    0.25911   1.00
H2       0.05162    0.85467    0.26627   1.00
H2       0.00734    0.83418    0.28626   1.00
C5       -0.00129   0.88139    0.24522   1.00
H2       -0.03137   0.87214    0.23702   1.00
H2       0.01302    0.89277    0.21832   1.00
C5       -0.00262   0.91301    0.27710   1.00
H2       0.02732    0.92219    0.28562   1.00
H2       -0.01811   0.90212    0.30348   1.00
C5       -0.02445   0.94923    0.26193   1.00
C5       -0.01105   0.74298    0.34091   1.00
C5       -0.11070   0.75334    0.15782   1.00
H2       0.00912    0.72269    0.32559   1.00
H2       -0.03712   0.72622    0.35089   1.00
H2       -0.08300   0.76671    0.14714   1.00
H2       -0.12895   0.77732    0.17038   1.00
H2       -0.19030   0.76066    0.11892   1.00
H2       0.05753    0.71698    0.38253   1.00
H2       0.01237    0.70336    0.40680   1.00
C2       0.10395    0.75243    0.25113   1.00
C3       0.08403    0.71747    0.25996   1.00
O2       0.10326    0.68711    0.27812   1.00
C3       0.08174    0.78550    0.24027   1.00
H1       0.09615    0.81241    0.23236   1.00
C3a      0.04287    0.71658    0.25876   1.00
H1       0.02798    0.69025    0.26776   1.00
C3b      0.04078    0.78488    0.24032   1.00
C4       0.02100    0.75028    0.24968   1.00
O3       -0.02167   0.77456    0.31672   1.00
C5       0.11280    0.65788    0.25074   1.00
H2       0.08609    0.64601    0.23633   1.00
C5       0.13326    0.62529    0.27306   1.00
H2       0.13274    0.66948    0.22780   1.00
H2       0.11068    0.60724    0.28790   1.00
H2       0.15093    0.63918    0.29654   1.00
C5       0.15918    0.59967    0.24680   1.00
H2       0.14176    0.58856    0.22181   1.00
C5       0.17547    0.56466    0.26977   1.00
H2       0.18493    0.61631    0.23561   1.00
C5       0.00983    0.75974    0.37643   1.00
H2       -0.01215   0.77450    0.39529   1.00
H2       0.03048    0.78268    0.36622   1.00
C5       0.03200    0.72814    0.39941   1.00
C5       0.04775    0.74533    0.43781   1.00
H2       -0.19286   0.71762    0.06515   1.00
H2       -0.18447   0.76656    0.04316   1.00
H2       -0.14323   0.73159    0.04809   1.00
H2       -0.03105   0.96965    0.28734   1.00
H2       -0.00551   0.96505    0.23963   1.00
H2       -0.05293   0.93981    0.24759   1.00
H2       0.20613    0.55763    0.25898   1.00
H2       0.17656    0.57219    0.30214   1.00
H2       0.15577    0.53826    0.26518   1.00
H2       0.04366    0.77833    0.43767   1.00
H2       0.03116    0.73221    0.46346   1.00
H2       0.08010    0.73818    0.44071   1.00
C5       0.63218    0.73348    0.37570   1.00
H2       0.64745    0.70819    0.36240   1.00
H2       0.61090    0.72094    0.39669   1.00
C5       0.66194    0.75939    0.39717   1.00
C5       0.67123    0.74271    0.43784   1.00
H2       0.65015    0.78947    0.40050   1.00
O3       0.48000    0.81761    0.27109   1.00
C4       0.52100    0.74972    0.24968   1.00
C3c      0.54243    0.73868    0.28282   1.00
H1       0.52725    0.72983    0.30901   1.00
C3d      0.54135    0.76062    0.21567   1.00
C3       0.58354    0.73938    0.28295   1.00
O2       0.60248    0.72368    0.31469   1.00
C3       0.58227    0.76207    0.21594   1.00
H1       0.59657    0.77194    0.18962   1.00
C2       0.60439    0.75140    0.24933   1.00
C5       0.47879    0.84561    0.24089   1.00
H2       0.44838    0.85467    0.23373   1.00
H2       0.49266    0.83418    0.21374   1.00
C5       0.50129    0.88139    0.25478   1.00
H2       0.53137    0.87214    0.26298   1.00
H2       0.48698    0.89277    0.28168   1.00
C5       0.50262    0.91301    0.22290   1.00
H2       0.47268    0.92219    0.21438   1.00
H2       0.51811    0.90212    0.19652   1.00
C5       0.52445    0.94923    0.23807   1.00
C5       0.51105    0.74298    0.15909   1.00
C5       0.61070    0.75334    0.34218   1.00
H2       0.49088    0.72269    0.17441   1.00
H2       0.53712    0.72622    0.14911   1.00
H2       0.58300    0.76671    0.35286   1.00
H2       0.62895    0.77732    0.32962   1.00
H2       0.69030    0.76066    0.38108   1.00
H2       0.44247    0.71698    0.11747   1.00
H2       0.48763    0.70336    0.09320   1.00
C2       0.39605    0.75243    0.24887   1.00
C3       0.41597    0.71747    0.24004   1.00
O2       0.39674    0.68711    0.22188   1.00
C3       0.41826    0.78550    0.25973   1.00
H1       0.40385    0.81241    0.26764   1.00
C3a      0.45713    0.71658    0.24124   1.00
H1       0.47202    0.69025    0.23224   1.00
C3b      0.45922    0.78488    0.25968   1.00
C4       0.47900    0.75028    0.25032   1.00
O3       0.52167    0.77456    0.18328   1.00
C5       0.38720    0.65788    0.24926   1.00
H2       0.41391    0.64601    0.26367   1.00
C5       0.36674    0.62529    0.22694   1.00
H2       0.36726    0.66948    0.27220   1.00
H2       0.38932    0.60724    0.21210   1.00
H2       0.34907    0.63918    0.20346   1.00
C5       0.34082    0.59967    0.25320   1.00
H2       0.35824    0.58856    0.27819   1.00
C5       0.32453    0.56466    0.23023   1.00
H2       0.31507    0.61631    0.26439   1.00
C5       0.49017    0.75974    0.12357   1.00
H2       0.51215    0.77450    0.10471   1.00
H2       0.46952    0.78268    0.13378   1.00
C5       0.46800    0.72814    0.10059   1.00
C5       0.45225    0.74533    0.06219   1.00
H2       0.69286    0.71762    0.43485   1.00
H2       0.68447    0.76656    0.45684   1.00
H2       0.64323    0.73159    0.45191   1.00
H2       0.53105    0.96965    0.21266   1.00
H2       0.50551    0.96505    0.26037   1.00
H2       0.55293    0.93981    0.25241   1.00
H2       0.29387    0.55763    0.24102   1.00
H2       0.32344    0.57219    0.19786   1.00
H2       0.34423    0.53826    0.23482   1.00
H2       0.45634    0.77833    0.06233   1.00
H2       0.46884    0.73221    0.03654   1.00
H2       0.41990    0.73818    0.05929   1.00
C5       0.12430    0.36782    0.23348   1.00
H2       0.13760    0.35255    0.20819   1.00
H2       0.10331    0.38910    0.22094   1.00
C5       0.10283    0.33806    0.25939   1.00
C5       0.06216    0.32877    0.24271   1.00
H2       0.09950    0.34985    0.28947   1.00
O3       0.22891    0.52000    0.31761   1.00
C4       0.25032    0.47900    0.24972   1.00
C3c      0.21718    0.45757    0.23868   1.00
H1       0.19099    0.47275    0.22983   1.00
C3d      0.28433    0.45865    0.26062   1.00
C3       0.21705    0.41646    0.23938   1.00
O2       0.18531    0.39752    0.22368   1.00
C3       0.28406    0.41773    0.26207   1.00
H1       0.31038    0.40343    0.27194   1.00
C2       0.25067    0.39561    0.25140   1.00
C5       0.25911    0.52121    0.34561   1.00
H2       0.26627    0.55162    0.35467   1.00
H2       0.28626    0.50734    0.33418   1.00
C5       0.24522    0.49871    0.38139   1.00
H2       0.23702    0.46863    0.37214   1.00
H2       0.21832    0.51302    0.39277   1.00
C5       0.27710    0.49738    0.41301   1.00
H2       0.28562    0.52732    0.42219   1.00
H2       0.30348    0.48189    0.40212   1.00
C5       0.26193    0.47555    0.44923   1.00
C5       0.34091    0.48895    0.24298   1.00
C5       0.15782    0.38930    0.25334   1.00
H2       0.32559    0.50912    0.22269   1.00
H2       0.35089    0.46288    0.22622   1.00
H2       0.14714    0.41700    0.26671   1.00
H2       0.17038    0.37105    0.27732   1.00
H2       0.11892    0.30970    0.26066   1.00
H2       0.38253    0.55753    0.21698   1.00
H2       0.40680    0.51237    0.20336   1.00
C2       0.25113    0.60395    0.25243   1.00
C3       0.25996    0.58403    0.21747   1.00
O2       0.27812    0.60326    0.18711   1.00
C3       0.24027    0.58174    0.28550   1.00
H1       0.23236    0.59615    0.31241   1.00
C3a      0.25876    0.54287    0.21658   1.00
H1       0.26776    0.52798    0.19025   1.00
C3b      0.24032    0.54078    0.28488   1.00
C4       0.24968    0.52100    0.25028   1.00
O3       0.31672    0.47833    0.27456   1.00
C5       0.25074    0.61280    0.15788   1.00
H2       0.23633    0.58609    0.14601   1.00
C5       0.27306    0.63326    0.12529   1.00
H2       0.22780    0.63274    0.16948   1.00
H2       0.28790    0.61068    0.10724   1.00
H2       0.29654    0.65093    0.13918   1.00
C5       0.24680    0.65918    0.09967   1.00
H2       0.22181    0.64176    0.08856   1.00
C5       0.26977    0.67547    0.06466   1.00
H2       0.23561    0.68493    0.11631   1.00
C5       0.37643    0.50983    0.25974   1.00
H2       0.39529    0.48785    0.27450   1.00
H2       0.36622    0.53048    0.28268   1.00
C5       0.39941    0.53200    0.22814   1.00
C5       0.43781    0.54775    0.24533   1.00
H2       0.06515    0.30714    0.21762   1.00
H2       0.04316    0.31553    0.26656   1.00
H2       0.04809    0.35677    0.23159   1.00
H2       0.28734    0.46895    0.46965   1.00
H2       0.23963    0.49449    0.46505   1.00
H2       0.24759    0.44707    0.43981   1.00
H2       0.25898    0.70613    0.05763   1.00
H2       0.30214    0.67656    0.07219   1.00
H2       0.26518    0.65577    0.03826   1.00
H2       0.43767    0.54366    0.27833   1.00
H2       0.46346    0.53116    0.23221   1.00
H2       0.44071    0.58010    0.23818   1.00
C5       0.23348    0.62430    -0.13218   1.00
H2       0.20819    0.63760    -0.14745   1.00
H2       0.22094    0.60331    -0.11090   1.00
C5       0.25939    0.60283    -0.16194   1.00
C5       0.24271    0.56216    -0.17123   1.00
H2       0.28947    0.59950    -0.15015   1.00
O3       0.31761    0.72891    0.02000   1.00
C4       0.24972    0.75032    -0.02100   1.00
C3c      0.23868    0.71718    -0.04243   1.00
H1       0.22983    0.69099    -0.02725   1.00
C3d      0.26062    0.78433    -0.04135   1.00
C3       0.23938    0.71705    -0.08354   1.00
O2       0.22368    0.68531    -0.10248   1.00
C3       0.26207    0.78406    -0.08227   1.00
H1       0.27194    0.81038    -0.09657   1.00
C2       0.25140    0.75067    -0.10439   1.00
C5       0.34561    0.75911    0.02121   1.00
H2       0.35467    0.76627    0.05162   1.00
H2       0.33418    0.78626    0.00734   1.00
C5       0.38139    0.74522    -0.00129   1.00
H2       0.37214    0.73702    -0.03137   1.00
H2       0.39277    0.71832    0.01302   1.00
C5       0.41301    0.77710    -0.00262   1.00
H2       0.42219    0.78562    0.02732   1.00
H2       0.40212    0.80348    -0.01811   1.00
C5       0.44923    0.76193    -0.02445   1.00
C5       0.24298    0.84091    -0.01105   1.00
C5       0.25334    0.65782    -0.11070   1.00
H2       0.22269    0.82559    0.00912   1.00
H2       0.22622    0.85089    -0.03712   1.00
H2       0.26671    0.64714    -0.08300   1.00
H2       0.27732    0.67038    -0.12895   1.00
H2       0.26066    0.61892    -0.19030   1.00
H2       0.21698    0.88253    0.05753   1.00
H2       0.20336    0.90680    0.01237   1.00
C2       0.25243    0.75113    0.10395   1.00
C3       0.21747    0.75996    0.08403   1.00
O2       0.18711    0.77812    0.10326   1.00
C3       0.28550    0.74027    0.08174   1.00
H1       0.31241    0.73236    0.09615   1.00
C3a      0.21658    0.75876    0.04287   1.00
H1       0.19025    0.76776    0.02798   1.00
C3b      0.28488    0.74032    0.04078   1.00
C4       0.25028    0.74968    0.02100   1.00
O3       0.27456    0.81672    -0.02167   1.00
C5       0.15788    0.75074    0.11280   1.00
H2       0.14601    0.73633    0.08609   1.00
C5       0.12529    0.77306    0.13326   1.00
H2       0.16948    0.72780    0.13274   1.00
H2       0.10724    0.78790    0.11068   1.00
H2       0.13918    0.79654    0.15093   1.00
C5       0.09967    0.74680    0.15918   1.00
H2       0.08856    0.72181    0.14176   1.00
C5       0.06466    0.76977    0.17547   1.00
H2       0.11631    0.73561    0.18493   1.00
C5       0.25974    0.87643    0.00983   1.00
H2       0.27450    0.89529    -0.01215   1.00
H2       0.28268    0.86622    0.03048   1.00
C5       0.22814    0.89941    0.03200   1.00
C5       0.24533    0.93781    0.04775   1.00
H2       0.21762    0.56515    -0.19286   1.00
H2       0.26656    0.54316    -0.18447   1.00
H2       0.23159    0.54809    -0.14323   1.00
H2       0.46965    0.78734    -0.03105   1.00
H2       0.46505    0.73963    -0.00551   1.00
H2       0.43981    0.74759    -0.05293   1.00
H2       0.05763    0.75898    0.20613   1.00
H2       0.07219    0.80214    0.17656   1.00
H2       0.03826    0.76518    0.15577   1.00
H2       0.27833    0.93767    0.04366   1.00
H2       0.23221    0.96346    0.03116   1.00
H2       0.23818    0.94071    0.08010   1.00
C5       0.73348    0.37570    0.63218   1.00
H2       0.70819    0.36240    0.64745   1.00
H2       0.72094    0.39669    0.61090   1.00
C5       0.75939    0.39717    0.66194   1.00
C5       0.74271    0.43784    0.67123   1.00
H2       0.78947    0.40050    0.65015   1.00
O3       0.81761    0.27109    0.48000   1.00
C4       0.74972    0.24968    0.52100   1.00
C3c      0.73868    0.28282    0.54243   1.00
H1       0.72983    0.30901    0.52725   1.00
C3d      0.76062    0.21567    0.54135   1.00
C3       0.73938    0.28295    0.58354   1.00
O2       0.72368    0.31469    0.60248   1.00
C3       0.76207    0.21594    0.58227   1.00
H1       0.77194    0.18962    0.59657   1.00
C2       0.75140    0.24933    0.60439   1.00
C5       0.84561    0.24089    0.47879   1.00
H2       0.85467    0.23373    0.44838   1.00
H2       0.83418    0.21374    0.49266   1.00
C5       0.88139    0.25478    0.50129   1.00
H2       0.87214    0.26298    0.53137   1.00
H2       0.89277    0.28168    0.48698   1.00
C5       0.91301    0.22290    0.50262   1.00
H2       0.92219    0.21438    0.47268   1.00
H2       0.90212    0.19652    0.51811   1.00
C5       0.94923    0.23807    0.52445   1.00
C5       0.74298    0.15909    0.51105   1.00
C5       0.75334    0.34218    0.61070   1.00
H2       0.72269    0.17441    0.49088   1.00
H2       0.72622    0.14911    0.53712   1.00
H2       0.76671    0.35286    0.58300   1.00
H2       0.77732    0.32962    0.62895   1.00
H2       0.76066    0.38108    0.69030   1.00
H2       0.71698    0.11747    0.44247   1.00
H2       0.70336    0.09320    0.48763   1.00
C2       0.75243    0.24887    0.39605   1.00
C3       0.71747    0.24004    0.41597   1.00
O2       0.68711    0.22188    0.39674   1.00
C3       0.78550    0.25973    0.41826   1.00
H1       0.81241    0.26764    0.40385   1.00
C3a      0.71658    0.24124    0.45713   1.00
H1       0.69025    0.23224    0.47202   1.00
C3b      0.78488    0.25968    0.45922   1.00
C4       0.75028    0.25032    0.47900   1.00
O3       0.77456    0.18328    0.52167   1.00
C5       0.65788    0.24926    0.38720   1.00
H2       0.64601    0.26367    0.41391   1.00
C5       0.62529    0.22694    0.36674   1.00
H2       0.66948    0.27220    0.36726   1.00
H2       0.60724    0.21210    0.38932   1.00
H2       0.63918    0.20346    0.34907   1.00
C5       0.59967    0.25320    0.34082   1.00
H2       0.58856    0.27819    0.35824   1.00
C5       0.56466    0.23023    0.32453   1.00
H2       0.61631    0.26439    0.31507   1.00
C5       0.75974    0.12357    0.49017   1.00
H2       0.77450    0.10471    0.51215   1.00
H2       0.78268    0.13378    0.46952   1.00
C5       0.72814    0.10059    0.46800   1.00
C5       0.74533    0.06219    0.45225   1.00
H2       0.71762    0.43485    0.69286   1.00
H2       0.76656    0.45684    0.68447   1.00
H2       0.73159    0.45191    0.64323   1.00
H2       0.96965    0.21266    0.53105   1.00
H2       0.96505    0.26037    0.50551   1.00
H2       0.93981    0.25241    0.55293   1.00
H2       0.55763    0.24102    0.29387   1.00
H2       0.57219    0.19786    0.32344   1.00
H2       0.53826    0.23482    0.34423   1.00
H2       0.77833    0.06233    0.45634   1.00
H2       0.73221    0.03654    0.46884   1.00
H2       0.73818    0.05929    0.41990   1.00
C5       0.87570    0.63218    0.23348   1.00
H2       0.86240    0.64745    0.20819   1.00
H2       0.89669    0.61090    0.22094   1.00
C5       0.89717    0.66194    0.25939   1.00
C5       0.93784    0.67123    0.24271   1.00
H2       0.90050    0.65015    0.28947   1.00
O3       0.77109    0.48000    0.31761   1.00
C4       0.74968    0.52100    0.24972   1.00
C3c      0.78282    0.54243    0.23868   1.00
H1       0.80901    0.52725    0.22983   1.00
C3d      0.71567    0.54135    0.26062   1.00
C3       0.78295    0.58354    0.23938   1.00
O2       0.81469    0.60248    0.22368   1.00
C3       0.71594    0.58227    0.26207   1.00
H1       0.68962    0.59657    0.27194   1.00
C2       0.74933    0.60439    0.25140   1.00
C5       0.74089    0.47879    0.34561   1.00
H2       0.73373    0.44838    0.35467   1.00
H2       0.71374    0.49266    0.33418   1.00
C5       0.75478    0.50129    0.38139   1.00
H2       0.76298    0.53137    0.37214   1.00
H2       0.78168    0.48698    0.39277   1.00
C5       0.72290    0.50262    0.41301   1.00
H2       0.71438    0.47268    0.42219   1.00
H2       0.69652    0.51811    0.40212   1.00
C5       0.73807    0.52445    0.44923   1.00
C5       0.65909    0.51105    0.24298   1.00
C5       0.84218    0.61070    0.25334   1.00
H2       0.67441    0.49088    0.22269   1.00
H2       0.64911    0.53712    0.22622   1.00
H2       0.85286    0.58300    0.26671   1.00
H2       0.82962    0.62895    0.27732   1.00
H2       0.88108    0.69030    0.26066   1.00
H2       0.61747    0.44247    0.21698   1.00
H2       0.59320    0.48763    0.20336   1.00
C2       0.74887    0.39605    0.25243   1.00
C3       0.74004    0.41597    0.21747   1.00
O2       0.72188    0.39674    0.18711   1.00
C3       0.75973    0.41826    0.28550   1.00
H1       0.76764    0.40385    0.31241   1.00
C3a      0.74124    0.45713    0.21658   1.00
H1       0.73224    0.47202    0.19025   1.00
C3b      0.75968    0.45922    0.28488   1.00
C4       0.75032    0.47900    0.25028   1.00
O3       0.68328    0.52167    0.27456   1.00
C5       0.74926    0.38720    0.15788   1.00
H2       0.76367    0.41391    0.14601   1.00
C5       0.72694    0.36674    0.12529   1.00
H2       0.77220    0.36726    0.16948   1.00
H2       0.71210    0.38932    0.10724   1.00
H2       0.70346    0.34907    0.13918   1.00
C5       0.75320    0.34082    0.09967   1.00
H2       0.77819    0.35824    0.08856   1.00
C5       0.73023    0.32453    0.06466   1.00
H2       0.76439    0.31507    0.11631   1.00
C5       0.62357    0.49017    0.25974   1.00
H2       0.60471    0.51215    0.27450   1.00
H2       0.63378    0.46952    0.28268   1.00
C5       0.60059    0.46800    0.22814   1.00
C5       0.56219    0.45225    0.24533   1.00
H2       0.93485    0.69286    0.21762   1.00
H2       0.95684    0.68447    0.26656   1.00
H2       0.95191    0.64323    0.23159   1.00
H2       0.71266    0.53105    0.46965   1.00
H2       0.76037    0.50551    0.46505   1.00
H2       0.75241    0.55293    0.43981   1.00
H2       0.74102    0.29387    0.05763   1.00
H2       0.69786    0.32344    0.07219   1.00
H2       0.73482    0.34423    0.03826   1.00
H2       0.56233    0.45634    0.27833   1.00
H2       0.53654    0.46884    0.23221   1.00
H2       0.55929    0.41990    0.23818   1.00
C5       0.36782    0.23348    0.12430   1.00
H2       0.35255    0.20819    0.13760   1.00
H2       0.38910    0.22094    0.10331   1.00
C5       0.33806    0.25939    0.10283   1.00
C5       0.32877    0.24271    0.06216   1.00
H2       0.34985    0.28947    0.09950   1.00
O3       0.52000    0.31761    0.22891   1.00
C4       0.47900    0.24972    0.25032   1.00
C3c      0.45757    0.23868    0.21718   1.00
H1       0.47275    0.22983    0.19099   1.00
C3d      0.45865    0.26062    0.28433   1.00
C3       0.41646    0.23938    0.21705   1.00
O2       0.39752    0.22368    0.18531   1.00
C3       0.41773    0.26207    0.28406   1.00
H1       0.40343    0.27194    0.31038   1.00
C2       0.39561    0.25140    0.25067   1.00
C5       0.52121    0.34561    0.25911   1.00
H2       0.55162    0.35467    0.26627   1.00
H2       0.50734    0.33418    0.28626   1.00
C5       0.49871    0.38139    0.24522   1.00
H2       0.46863    0.37214    0.23702   1.00
H2       0.51302    0.39277    0.21832   1.00
C5       0.49738    0.41301    0.27710   1.00
H2       0.52732    0.42219    0.28562   1.00
H2       0.48189    0.40212    0.30348   1.00
C5       0.47555    0.44923    0.26193   1.00
C5       0.48895    0.24298    0.34091   1.00
C5       0.38930    0.25334    0.15782   1.00
H2       0.50912    0.22269    0.32559   1.00
H2       0.46288    0.22622    0.35089   1.00
H2       0.41700    0.26671    0.14714   1.00
H2       0.37105    0.27732    0.17038   1.00
H2       0.30970    0.26066    0.11892   1.00
H2       0.55753    0.21698    0.38253   1.00
H2       0.51237    0.20336    0.40680   1.00
C2       0.60395    0.25243    0.25113   1.00
C3       0.58403    0.21747    0.25996   1.00
O2       0.60326    0.18711    0.27812   1.00
C3       0.58174    0.28550    0.24027   1.00
H1       0.59615    0.31241    0.23236   1.00
C3a      0.54287    0.21658    0.25876   1.00
H1       0.52798    0.19025    0.26776   1.00
C3b      0.54078    0.28488    0.24032   1.00
C4       0.52100    0.25028    0.24968   1.00
O3       0.47833    0.27456    0.31672   1.00
C5       0.61280    0.15788    0.25074   1.00
H2       0.58609    0.14601    0.23633   1.00
C5       0.63326    0.12529    0.27306   1.00
H2       0.63274    0.16948    0.22780   1.00
H2       0.61068    0.10724    0.28790   1.00
H2       0.65093    0.13918    0.29654   1.00
C5       0.65918    0.09967    0.24680   1.00
H2       0.64176    0.08856    0.22181   1.00
C5       0.67547    0.06466    0.26977   1.00
H2       0.68493    0.11631    0.23561   1.00
C5       0.50983    0.25974    0.37643   1.00
H2       0.48785    0.27450    0.39529   1.00
H2       0.53048    0.28268    0.36622   1.00
C5       0.53200    0.22814    0.39941   1.00
C5       0.54775    0.24533    0.43781   1.00
H2       0.30714    0.21762    0.06515   1.00
H2       0.31553    0.26656    0.04316   1.00
H2       0.35677    0.23159    0.04809   1.00
H2       0.46895    0.46965    0.28734   1.00
H2       0.49449    0.46505    0.23963   1.00
H2       0.44707    0.43981    0.24759   1.00
H2       0.70613    0.05763    0.25898   1.00
H2       0.67656    0.07219    0.30214   1.00
H2       0.65577    0.03826    0.26518   1.00
H2       0.54366    0.27833    0.43767   1.00
H2       0.53116    0.23221    0.46346   1.00
H2       0.58010    0.23818    0.44071   1.00
C5       1.13218    0.23348    0.37570   1.00
H2       1.14745    0.20819    0.36240   1.00
H2       1.11090    0.22094    0.39669   1.00
C5       1.16194    0.25939    0.39717   1.00
C5       1.17123    0.24271    0.43784   1.00
H2       1.15015    0.28947    0.40050   1.00
O3       0.98000    0.31761    0.27109   1.00
C4       1.02100    0.24972    0.24968   1.00
C3c      1.04243    0.23868    0.28282   1.00
H1       1.02725    0.22983    0.30901   1.00
C3d      1.04135    0.26062    0.21567   1.00
C3       1.08354    0.23938    0.28295   1.00
O2       1.10248    0.22368    0.31469   1.00
C3       1.08227    0.26207    0.21594   1.00
H1       1.09657    0.27194    0.18962   1.00
C2       1.10439    0.25140    0.24933   1.00
C5       0.97879    0.34561    0.24089   1.00
H2       0.94838    0.35467    0.23373   1.00
H2       0.99266    0.33418    0.21374   1.00
C5       1.00129    0.38139    0.25478   1.00
H2       1.03137    0.37214    0.26298   1.00
H2       0.98698    0.39277    0.28168   1.00
C5       1.00262    0.41301    0.22290   1.00
H2       0.97268    0.42219    0.21438   1.00
H2       1.01811    0.40212    0.19652   1.00
C5       1.02445    0.44923    0.23807   1.00
C5       1.01105    0.24298    0.15909   1.00
C5       1.11070    0.25334    0.34218   1.00
H2       0.99088    0.22269    0.17441   1.00
H2       1.03712    0.22622    0.14911   1.00
H2       1.08300    0.26671    0.35286   1.00
H2       1.12895    0.27732    0.32962   1.00
H2       1.19030    0.26066    0.38108   1.00
H2       0.94247    0.21698    0.11747   1.00
H2       0.98763    0.20336    0.09320   1.00
C2       0.89605    0.25243    0.24887   1.00
C3       0.91597    0.21747    0.24004   1.00
O2       0.89674    0.18711    0.22188   1.00
C3       0.91826    0.28550    0.25973   1.00
H1       0.90385    0.31241    0.26764   1.00
C3a      0.95713    0.21658    0.24124   1.00
H1       0.97202    0.19025    0.23224   1.00
C3b      0.95922    0.28488    0.25968   1.00
C4       0.97900    0.25028    0.25032   1.00
O3       1.02167    0.27456    0.18328   1.00
C5       0.88720    0.15788    0.24926   1.00
H2       0.91391    0.14601    0.26367   1.00
C5       0.86674    0.12529    0.22694   1.00
H2       0.86726    0.16948    0.27220   1.00
H2       0.88932    0.10724    0.21210   1.00
H2       0.84907    0.13918    0.20346   1.00
C5       0.84082    0.09967    0.25320   1.00
H2       0.85824    0.08856    0.27819   1.00
C5       0.82453    0.06466    0.23023   1.00
H2       0.81507    0.11631    0.26439   1.00
C5       0.99017    0.25974    0.12357   1.00
H2       1.01215    0.27450    0.10471   1.00
H2       0.96952    0.28268    0.13378   1.00
C5       0.96800    0.22814    0.10059   1.00
C5       0.95225    0.24533    0.06219   1.00
H2       1.19286    0.21762    0.43485   1.00
H2       1.18447    0.26656    0.45684   1.00
H2       1.14323    0.23159    0.45191   1.00
H2       1.03105    0.46965    0.21266   1.00
H2       1.00551    0.46505    0.26037   1.00
H2       1.05293    0.43981    0.25241   1.00
H2       0.79387    0.05763    0.24102   1.00
H2       0.82344    0.07219    0.19786   1.00
H2       0.84423    0.03826    0.23482   1.00
H2       0.95634    0.27833    0.06233   1.00
H2       0.96884    0.23221    0.03654   1.00
H2       0.91990    0.23818    0.05929   1.00
C5       0.62430    -0.13218   0.23348   1.00
H2       0.63760    -0.14745   0.20819   1.00
H2       0.60331    -0.11090   0.22094   1.00
C5       0.60283    -0.16194   0.25939   1.00
C5       0.56216    -0.17123   0.24271   1.00
H2       0.59950    -0.15015   0.28947   1.00
O3       0.72891    0.02000    0.31761   1.00
C4       0.75032    -0.02100   0.24972   1.00
C3c      0.71718    -0.04243   0.23868   1.00
H1       0.69099    -0.02725   0.22983   1.00
C3d      0.78433    -0.04135   0.26062   1.00
C3       0.71705    -0.08354   0.23938   1.00
O2       0.68531    -0.10248   0.22368   1.00
C3       0.78406    -0.08227   0.26207   1.00
H1       0.81038    -0.09657   0.27194   1.00
C2       0.75067    -0.10439   0.25140   1.00
C5       0.75911    0.02121    0.34561   1.00
H2       0.76627    0.05162    0.35467   1.00
H2       0.78626    0.00734    0.33418   1.00
C5       0.74522    -0.00129   0.38139   1.00
H2       0.73702    -0.03137   0.37214   1.00
H2       0.71832    0.01302    0.39277   1.00
C5       0.77710    -0.00262   0.41301   1.00
H2       0.78562    0.02732    0.42219   1.00
H2       0.80348    -0.01811   0.40212   1.00
C5       0.76193    -0.02445   0.44923   1.00
C5       0.84091    -0.01105   0.24298   1.00
C5       0.65782    -0.11070   0.25334   1.00
H2       0.82559    0.00912    0.22269   1.00
H2       0.85089    -0.03712   0.22622   1.00
H2       0.64714    -0.08300   0.26671   1.00
H2       0.67038    -0.12895   0.27732   1.00
H2       0.61892    -0.19030   0.26066   1.00
H2       0.88253    0.05753    0.21698   1.00
H2       0.90680    0.01237    0.20336   1.00
C2       0.75113    0.10395    0.25243   1.00
C3       0.75996    0.08403    0.21747   1.00
O2       0.77812    0.10326    0.18711   1.00
C3       0.74027    0.08174    0.28550   1.00
H1       0.73236    0.09615    0.31241   1.00
C3a      0.75876    0.04287    0.21658   1.00
H1       0.76776    0.02798    0.19025   1.00
C3b      0.74032    0.04078    0.28488   1.00
C4       0.74968    0.02100    0.25028   1.00
O3       0.81672    -0.02167   0.27456   1.00
C5       0.75074    0.11280    0.15788   1.00
H2       0.73633    0.08609    0.14601   1.00
C5       0.77306    0.13326    0.12529   1.00
H2       0.72780    0.13274    0.16948   1.00
H2       0.78790    0.11068    0.10724   1.00
H2       0.79654    0.15093    0.13918   1.00
C5       0.74680    0.15918    0.09967   1.00
H2       0.72181    0.14176    0.08856   1.00
C5       0.76977    0.17547    0.06466   1.00
H2       0.73561    0.18493    0.11631   1.00
C5       0.87643    0.00983    0.25974   1.00
H2       0.89529    -0.01215   0.27450   1.00
H2       0.86622    0.03048    0.28268   1.00
C5       0.89941    0.03200    0.22814   1.00
C5       0.93781    0.04775    0.24533   1.00
H2       0.56515    -0.19286   0.21762   1.00
H2       0.54316    -0.18447   0.26656   1.00
H2       0.54809    -0.14323   0.23159   1.00
H2       0.78734    -0.03105   0.46965   1.00
H2       0.73963    -0.00551   0.46505   1.00
H2       0.74759    -0.05293   0.43981   1.00
H2       0.75898    0.20613    0.05763   1.00
H2       0.80214    0.17656    0.07219   1.00
H2       0.76518    0.15577    0.03826   1.00
H2       0.93767    0.04366    0.27833   1.00
H2       0.96346    0.03116    0.23221   1.00
H2       0.94071    0.08010    0.23818   1.00
C5       0.73348    0.12430    -0.13218   1.00
H2       0.70819    0.13760    -0.14745   1.00
H2       0.72094    0.10331    -0.11090   1.00
C5       0.75939    0.10283    -0.16194   1.00
C5       0.74271    0.06216    -0.17123   1.00
H2       0.78947    0.09950    -0.15015   1.00
O3       0.81761    0.22891    0.02000   1.00
C4       0.74972    0.25032    -0.02100   1.00
C3c      0.73868    0.21718    -0.04243   1.00
H1       0.72983    0.19099    -0.02725   1.00
C3d      0.76062    0.28433    -0.04135   1.00
C3       0.73938    0.21705    -0.08354   1.00
O2       0.72368    0.18531    -0.10248   1.00
C3       0.76207    0.28406    -0.08227   1.00
H1       0.77194    0.31038    -0.09657   1.00
C2       0.75140    0.25067    -0.10439   1.00
C5       0.84561    0.25911    0.02121   1.00
H2       0.85467    0.26627    0.05162   1.00
H2       0.83418    0.28626    0.00734   1.00
C5       0.88139    0.24522    -0.00129   1.00
H2       0.87214    0.23702    -0.03137   1.00
H2       0.89277    0.21832    0.01302   1.00
C5       0.91301    0.27710    -0.00262   1.00
H2       0.92219    0.28562    0.02732   1.00
H2       0.90212    0.30348    -0.01811   1.00
C5       0.94923    0.26193    -0.02445   1.00
C5       0.74298    0.34091    -0.01105   1.00
C5       0.75334    0.15782    -0.11070   1.00
H2       0.72269    0.32559    0.00912   1.00
H2       0.72622    0.35089    -0.03712   1.00
H2       0.76671    0.14714    -0.08300   1.00
H2       0.77732    0.17038    -0.12895   1.00
H2       0.76066    0.11892    -0.19030   1.00
H2       0.71698    0.38253    0.05753   1.00
H2       0.70336    0.40680    0.01237   1.00
C2       0.75243    0.25113    0.10395   1.00
C3       0.71747    0.25996    0.08403   1.00
O2       0.68711    0.27812    0.10326   1.00
C3       0.78550    0.24027    0.08174   1.00
H1       0.81241    0.23236    0.09615   1.00
C3a      0.71658    0.25876    0.04287   1.00
H1       0.69025    0.26776    0.02798   1.00
C3b      0.78488    0.24032    0.04078   1.00
C4       0.75028    0.24968    0.02100   1.00
O3       0.77456    0.31672    -0.02167   1.00
C5       0.65788    0.25074    0.11280   1.00
H2       0.64601    0.23633    0.08609   1.00
C5       0.62529    0.27306    0.13326   1.00
H2       0.66948    0.22780    0.13274   1.00
H2       0.60724    0.28790    0.11068   1.00
H2       0.63918    0.29654    0.15093   1.00
C5       0.59967    0.24680    0.15918   1.00
H2       0.58856    0.22181    0.14176   1.00
C5       0.56466    0.26977    0.17547   1.00
H2       0.61631    0.23561    0.18493   1.00
C5       0.75974    0.37643    0.00983   1.00
H2       0.77450    0.39529    -0.01215   1.00
H2       0.78268    0.36622    0.03048   1.00
C5       0.72814    0.39941    0.03200   1.00
C5       0.74533    0.43781    0.04775   1.00
H2       0.71762    0.06515    -0.19286   1.00
H2       0.76656    0.04316    -0.18447   1.00
H2       0.73159    0.04809    -0.14323   1.00
H2       0.96965    0.28734    -0.03105   1.00
H2       0.96505    0.23963    -0.00551   1.00
H2       0.93981    0.24759    -0.05293   1.00
H2       0.55763    0.25898    0.20613   1.00
H2       0.57219    0.30214    0.17656   1.00
H2       0.53826    0.26518    0.15577   1.00
H2       0.77833    0.43767    0.04366   1.00
H2       0.73221    0.46346    0.03116   1.00
H2       0.73818    0.44071    0.08010   1.00
C5       0.98348    1.12570    1.38218   1.00
H2       0.95819    1.11240    1.39745   1.00
H2       0.97094    1.14669    1.36090   1.00
C5       1.00939    1.14717    1.41194   1.00
C5       0.99271    1.18784    1.42123   1.00
H2       1.03947    1.15050    1.40015   1.00
O3       1.06761    1.02109    1.23000   1.00
C4       0.99972    0.99968    1.27100   1.00
C3c      0.98868    1.03282    1.29243   1.00
H1       0.97983    1.05901    1.27725   1.00
C3d      1.01062    0.96567    1.29135   1.00
C3       0.98938    1.03295    1.33354   1.00
O2       0.97368    1.06469    1.35248   1.00
C3       1.01207    0.96594    1.33227   1.00
H1       1.02194    0.93962    1.34657   1.00
C2       1.00140    0.99933    1.35439   1.00
C5       1.09561    0.99089    1.22879   1.00
H2       1.10467    0.98373    1.19838   1.00
H2       1.08418    0.96374    1.24266   1.00
C5       1.13139    1.00478    1.25129   1.00
H2       1.12214    1.01298    1.28137   1.00
H2       1.14277    1.03168    1.23698   1.00
C5       1.16301    0.97290    1.25262   1.00
H2       1.17219    0.96438    1.22268   1.00
H2       1.15212    0.94652    1.26811   1.00
C5       1.19923    0.98807    1.27445   1.00
C5       0.99298    0.90909    1.26105   1.00
C5       1.00334    1.09218    1.36070   1.00
H2       0.97269    0.92441    1.24088   1.00
H2       0.97622    0.89911    1.28712   1.00
H2       1.01671    1.10286    1.33300   1.00
H2       1.02732    1.07962    1.37895   1.00
H2       1.01066    1.13108    1.44030   1.00
H2       0.96698    0.86747    1.19247   1.00
H2       0.95336    0.84320    1.23763   1.00
C2       1.00243    0.99887    1.14605   1.00
C3       0.96747    0.99004    1.16597   1.00
O2       0.93711    0.97188    1.14674   1.00
C3       1.03550    1.00973    1.16826   1.00
H1       1.06241    1.01764    1.15385   1.00
C3a      0.96658    0.99124    1.20713   1.00
H1       0.94025    0.98224    1.22202   1.00
C3b      1.03488    1.00968    1.20922   1.00
C4       1.00028    1.00032    1.22900   1.00
O3       1.02456    0.93328    1.27167   1.00
C5       0.90788    0.99926    1.13720   1.00
H2       0.89601    1.01367    1.16391   1.00
C5       0.87529    0.97694    1.11674   1.00
H2       0.91948    1.02220    1.11726   1.00
H2       0.85724    0.96210    1.13932   1.00
H2       0.88918    0.95346    1.09907   1.00
C5       0.84967    1.00320    1.09082   1.00
H2       0.83856    1.02819    1.10824   1.00
C5       0.81466    0.98023    1.07453   1.00
H2       0.86631    1.01439    1.06507   1.00
C5       1.00974    0.87357    1.24017   1.00
H2       1.02450    0.85471    1.26215   1.00
H2       1.03268    0.88378    1.21952   1.00
C5       0.97814    0.85059    1.21800   1.00
C5       0.99533    0.81219    1.20225   1.00
H2       0.96762    1.18485    1.44286   1.00
H2       1.01656    1.20684    1.43447   1.00
H2       0.98159    1.20191    1.39323   1.00
H2       1.21965    0.96266    1.28105   1.00
H2       1.21505    1.01037    1.25551   1.00
H2       1.18981    1.00241    1.30293   1.00
H2       0.80763    0.99102    1.04387   1.00
H2       0.82219    0.94786    1.07344   1.00
H2       0.78826    0.98482    1.09423   1.00
H2       1.02833    0.81233    1.20634   1.00
H2       0.98221    0.78654    1.21884   1.00
H2       0.98818    0.80929    1.16990   1.00
C5       1.12570    1.38218    0.98348   1.00
H2       1.11240    1.39745    0.95819   1.00
H2       1.14669    1.36090    0.97094   1.00
C5       1.14717    1.41194    1.00939   1.00
C5       1.18784    1.42123    0.99271   1.00
H2       1.15050    1.40015    1.03947   1.00
O3       1.02109    1.23000    1.06761   1.00
C4       0.99968    1.27100    0.99972   1.00
C3c      1.03282    1.29243    0.98868   1.00
H1       1.05901    1.27725    0.97983   1.00
C3d      0.96567    1.29135    1.01062   1.00
C3       1.03295    1.33354    0.98938   1.00
O2       1.06469    1.35248    0.97368   1.00
C3       0.96594    1.33227    1.01207   1.00
H1       0.93962    1.34657    1.02194   1.00
C2       0.99933    1.35439    1.00140   1.00
C5       0.99089    1.22879    1.09561   1.00
H2       0.98373    1.19838    1.10467   1.00
H2       0.96374    1.24266    1.08418   1.00
C5       1.00478    1.25129    1.13139   1.00
H2       1.01298    1.28137    1.12214   1.00
H2       1.03168    1.23698    1.14277   1.00
C5       0.97290    1.25262    1.16301   1.00
H2       0.96438    1.22268    1.17219   1.00
H2       0.94652    1.26811    1.15212   1.00
C5       0.98807    1.27445    1.19923   1.00
C5       0.90909    1.26105    0.99298   1.00
C5       1.09218    1.36070    1.00334   1.00
H2       0.92441    1.24088    0.97269   1.00
H2       0.89911    1.28712    0.97622   1.00
H2       1.10286    1.33300    1.01671   1.00
H2       1.07962    1.37895    1.02732   1.00
H2       1.13108    1.44030    1.01066   1.00
H2       0.86747    1.19247    0.96698   1.00
H2       0.84320    1.23763    0.95336   1.00
C2       0.99887    1.14605    1.00243   1.00
C3       0.99004    1.16597    0.96747   1.00
O2       0.97188    1.14674    0.93711   1.00
C3       1.00973    1.16826    1.03550   1.00
H1       1.01764    1.15385    1.06241   1.00
C3a      0.99124    1.20713    0.96658   1.00
H1       0.98224    1.22202    0.94025   1.00
C3b      1.00968    1.20922    1.03488   1.00
C4       1.00032    1.22900    1.00028   1.00
O3       0.93328    1.27167    1.02456   1.00
C5       0.99926    1.13720    0.90788   1.00
H2       1.01367    1.16391    0.89601   1.00
C5       0.97694    1.11674    0.87529   1.00
H2       1.02220    1.11726    0.91948   1.00
H2       0.96210    1.13932    0.85724   1.00
H2       0.95346    1.09907    0.88918   1.00
C5       1.00320    1.09082    0.84967   1.00
H2       1.02819    1.10824    0.83856   1.00
C5       0.98023    1.07453    0.81466   1.00
H2       1.01439    1.06507    0.86631   1.00
C5       0.87357    1.24017    1.00974   1.00
H2       0.85471    1.26215    1.02450   1.00
H2       0.88378    1.21952    1.03268   1.00
C5       0.85059    1.21800    0.97814   1.00
C5       0.81219    1.20225    0.99533   1.00
H2       1.18485    1.44286    0.96762   1.00
H2       1.20684    1.43447    1.01656   1.00
H2       1.20191    1.39323    0.98159   1.00
H2       0.96266    1.28105    1.21965   1.00
H2       1.01037    1.25551    1.21505   1.00
H2       1.00241    1.30293    1.18981   1.00
H2       0.99102    1.04387    0.80763   1.00
H2       0.94786    1.07344    0.82219   1.00
H2       0.98482    1.09423    0.78826   1.00
H2       0.81233    1.20634    1.02833   1.00
H2       0.78654    1.21884    0.98221   1.00
H2       0.80929    1.16990    0.98818   1.00
C5       0.61782    0.98348    0.87430   1.00
H2       0.60255    0.95819    0.88760   1.00
H2       0.63910    0.97094    0.85331   1.00
C5       0.58806    1.00939    0.85283   1.00
C5       0.57877    0.99271    0.81216   1.00
H2       0.59985    1.03947    0.84950   1.00
O3       0.77000    1.06761    0.97891   1.00
C4       0.72900    0.99972    1.00032   1.00
C3c      0.70757    0.98868    0.96718   1.00
H1       0.72275    0.97983    0.94099   1.00
C3d      0.70865    1.01062    1.03433   1.00
C3       0.66646    0.98938    0.96705   1.00
O2       0.64752    0.97368    0.93531   1.00
C3       0.66773    1.01207    1.03406   1.00
H1       0.65343    1.02194    1.06038   1.00
C2       0.64561    1.00140    1.00067   1.00
C5       0.77121    1.09561    1.00911   1.00
H2       0.80162    1.10467    1.01627   1.00
H2       0.75734    1.08418    1.03626   1.00
C5       0.74871    1.13139    0.99522   1.00
H2       0.71863    1.12214    0.98702   1.00
H2       0.76302    1.14277    0.96832   1.00
C5       0.74738    1.16301    1.02710   1.00
H2       0.77732    1.17219    1.03562   1.00
H2       0.73189    1.15212    1.05348   1.00
C5       0.72555    1.19923    1.01193   1.00
C5       0.73895    0.99298    1.09091   1.00
C5       0.63930    1.00334    0.90782   1.00
H2       0.75912    0.97269    1.07559   1.00
H2       0.71288    0.97622    1.10089   1.00
H2       0.66700    1.01671    0.89714   1.00
H2       0.62105    1.02732    0.92038   1.00
H2       0.55970    1.01066    0.86892   1.00
H2       0.80753    0.96698    1.13253   1.00
H2       0.76237    0.95336    1.15680   1.00
C2       0.85395    1.00243    1.00113   1.00
C3       0.83403    0.96747    1.00996   1.00
O2       0.85326    0.93711    1.02812   1.00
C3       0.83174    1.03550    0.99027   1.00
H1       0.84615    1.06241    0.98236   1.00
C3a      0.79287    0.96658    1.00876   1.00
H1       0.77798    0.94025    1.01776   1.00
C3b      0.79078    1.03488    0.99032   1.00
C4       0.77100    1.00028    0.99968   1.00
O3       0.72833    1.02456    1.06672   1.00
C5       0.86280    0.90788    1.00074   1.00
H2       0.83609    0.89601    0.98633   1.00
C5       0.88326    0.87529    1.02306   1.00
H2       0.88274    0.91948    0.97780   1.00
H2       0.86068    0.85724    1.03790   1.00
H2       0.90093    0.88918    1.04654   1.00
C5       0.90918    0.84967    0.99680   1.00
H2       0.89176    0.83856    0.97181   1.00
C5       0.92547    0.81466    1.01977   1.00
H2       0.93493    0.86631    0.98561   1.00
C5       0.75983    1.00974    1.12643   1.00
H2       0.73785    1.02450    1.14529   1.00
H2       0.78048    1.03268    1.11622   1.00
C5       0.78200    0.97814    1.14941   1.00
C5       0.79775    0.99533    1.18781   1.00
H2       0.55714    0.96762    0.81515   1.00
H2       0.56553    1.01656    0.79316   1.00
H2       0.60677    0.98159    0.79809   1.00
H2       0.71895    1.21965    1.03734   1.00
H2       0.74449    1.21505    0.98963   1.00
H2       0.69707    1.18981    0.99759   1.00
H2       0.95613    0.80763    1.00898   1.00
H2       0.92656    0.82219    1.05214   1.00
H2       0.90577    0.78826    1.01518   1.00
H2       0.79366    1.02833    1.18767   1.00
H2       0.78116    0.98221    1.21346   1.00
H2       0.83010    0.98818    1.19071   1.00
C5       1.38218    0.98348    1.12570   1.00
H2       1.39745    0.95819    1.11240   1.00
H2       1.36090    0.97094    1.14669   1.00
C5       1.41194    1.00939    1.14717   1.00
C5       1.42123    0.99271    1.18784   1.00
H2       1.40015    1.03947    1.15050   1.00
O3       1.23000    1.06761    1.02109   1.00
C4       1.27100    0.99972    0.99968   1.00
C3c      1.29243    0.98868    1.03282   1.00
H1       1.27725    0.97983    1.05901   1.00
C3d      1.29135    1.01062    0.96567   1.00
C3       1.33354    0.98938    1.03295   1.00
O2       1.35248    0.97368    1.06469   1.00
C3       1.33227    1.01207    0.96594   1.00
H1       1.34657    1.02194    0.93962   1.00
C2       1.35439    1.00140    0.99933   1.00
C5       1.22879    1.09561    0.99089   1.00
H2       1.19838    1.10467    0.98373   1.00
H2       1.24266    1.08418    0.96374   1.00
C5       1.25129    1.13139    1.00478   1.00
H2       1.28137    1.12214    1.01298   1.00
H2       1.23698    1.14277    1.03168   1.00
C5       1.25262    1.16301    0.97290   1.00
H2       1.22268    1.17219    0.96438   1.00
H2       1.26811    1.15212    0.94652   1.00
C5       1.27445    1.19923    0.98807   1.00
C5       1.26105    0.99298    0.90909   1.00
C5       1.36070    1.00334    1.09218   1.00
H2       1.24088    0.97269    0.92441   1.00
H2       1.28712    0.97622    0.89911   1.00
H2       1.33300    1.01671    1.10286   1.00
H2       1.37895    1.02732    1.07962   1.00
H2       1.44030    1.01066    1.13108   1.00
H2       1.19247    0.96698    0.86747   1.00
H2       1.23763    0.95336    0.84320   1.00
C2       1.14605    1.00243    0.99887   1.00
C3       1.16597    0.96747    0.99004   1.00
O2       1.14674    0.93711    0.97188   1.00
C3       1.16826    1.03550    1.00973   1.00
H1       1.15385    1.06241    1.01764   1.00
C3a      1.20713    0.96658    0.99124   1.00
H1       1.22202    0.94025    0.98224   1.00
C3b      1.20922    1.03488    1.00968   1.00
C4       1.22900    1.00028    1.00032   1.00
O3       1.27167    1.02456    0.93328   1.00
C5       1.13720    0.90788    0.99926   1.00
H2       1.16391    0.89601    1.01367   1.00
C5       1.11674    0.87529    0.97694   1.00
H2       1.11726    0.91948    1.02220   1.00
H2       1.13932    0.85724    0.96210   1.00
H2       1.09907    0.88918    0.95346   1.00
C5       1.09082    0.84967    1.00320   1.00
H2       1.10824    0.83856    1.02819   1.00
C5       1.07453    0.81466    0.98023   1.00
H2       1.06507    0.86631    1.01439   1.00
C5       1.24017    1.00974    0.87357   1.00
H2       1.26215    1.02450    0.85471   1.00
H2       1.21952    1.03268    0.88378   1.00
C5       1.21800    0.97814    0.85059   1.00
C5       1.20225    0.99533    0.81219   1.00
H2       1.44286    0.96762    1.18485   1.00
H2       1.43447    1.01656    1.20684   1.00
H2       1.39323    0.98159    1.20191   1.00
H2       1.28105    1.21965    0.96266   1.00
H2       1.25551    1.21505    1.01037   1.00
H2       1.30293    1.18981    1.00241   1.00
H2       1.04387    0.80763    0.99102   1.00
H2       1.07344    0.82219    0.94786   1.00
H2       1.09423    0.78826    0.98482   1.00
H2       1.20634    1.02833    0.81233   1.00
H2       1.21884    0.98221    0.78654   1.00
H2       1.16990    0.98818    0.80929   1.00
C5       0.87430    0.61782    0.98348   1.00
H2       0.88760    0.60255    0.95819   1.00
H2       0.85331    0.63910    0.97094   1.00
C5       0.85283    0.58806    1.00939   1.00
C5       0.81216    0.57877    0.99271   1.00
H2       0.84950    0.59985    1.03947   1.00
O3       0.97891    0.77000    1.06761   1.00
C4       1.00032    0.72900    0.99972   1.00
C3c      0.96718    0.70757    0.98868   1.00
H1       0.94099    0.72275    0.97983   1.00
C3d      1.03433    0.70865    1.01062   1.00
C3       0.96705    0.66646    0.98938   1.00
O2       0.93531    0.64752    0.97368   1.00
C3       1.03406    0.66773    1.01207   1.00
H1       1.06038    0.65343    1.02194   1.00
C2       1.00067    0.64561    1.00140   1.00
C5       1.00911    0.77121    1.09561   1.00
H2       1.01627    0.80162    1.10467   1.00
H2       1.03626    0.75734    1.08418   1.00
C5       0.99522    0.74871    1.13139   1.00
H2       0.98702    0.71863    1.12214   1.00
H2       0.96832    0.76302    1.14277   1.00
C5       1.02710    0.74738    1.16301   1.00
H2       1.03562    0.77732    1.17219   1.00
H2       1.05348    0.73189    1.15212   1.00
C5       1.01193    0.72555    1.19923   1.00
C5       1.09091    0.73895    0.99298   1.00
C5       0.90782    0.63930    1.00334   1.00
H2       1.07559    0.75912    0.97269   1.00
H2       1.10089    0.71288    0.97622   1.00
H2       0.89714    0.66700    1.01671   1.00
H2       0.92038    0.62105    1.02732   1.00
H2       0.86892    0.55970    1.01066   1.00
H2       1.13253    0.80753    0.96698   1.00
H2       1.15680    0.76237    0.95336   1.00
C2       1.00113    0.85395    1.00243   1.00
C3       1.00996    0.83403    0.96747   1.00
O2       1.02812    0.85326    0.93711   1.00
C3       0.99027    0.83174    1.03550   1.00
H1       0.98236    0.84615    1.06241   1.00
C3a      1.00876    0.79287    0.96658   1.00
H1       1.01776    0.77798    0.94025   1.00
C3b      0.99032    0.79078    1.03488   1.00
C4       0.99968    0.77100    1.00028   1.00
O3       1.06672    0.72833    1.02456   1.00
C5       1.00074    0.86280    0.90788   1.00
H2       0.98633    0.83609    0.89601   1.00
C5       1.02306    0.88326    0.87529   1.00
H2       0.97780    0.88274    0.91948   1.00
H2       1.03790    0.86068    0.85724   1.00
H2       1.04654    0.90093    0.88918   1.00
C5       0.99680    0.90918    0.84967   1.00
H2       0.97181    0.89176    0.83856   1.00
C5       1.01977    0.92547    0.81466   1.00
H2       0.98561    0.93493    0.86631   1.00
C5       1.12643    0.75983    1.00974   1.00
H2       1.14529    0.73785    1.02450   1.00
H2       1.11622    0.78048    1.03268   1.00
C5       1.14941    0.78200    0.97814   1.00
C5       1.18781    0.79775    0.99533   1.00
H2       0.81515    0.55714    0.96762   1.00
H2       0.79316    0.56553    1.01656   1.00
H2       0.79809    0.60677    0.98159   1.00
H2       1.03734    0.71895    1.21965   1.00
H2       0.98963    0.74449    1.21505   1.00
H2       0.99759    0.69707    1.18981   1.00
H2       1.00898    0.95613    0.80763   1.00
H2       1.05214    0.92656    0.82219   1.00
H2       1.01518    0.90577    0.78826   1.00
H2       1.18767    0.79366    1.02833   1.00
H2       1.21346    0.78116    0.98221   1.00
H2       1.19071    0.83010    0.98818   1.00
C5       0.98348    0.87430    0.61782   1.00
H2       0.95819    0.88760    0.60255   1.00
H2       0.97094    0.85331    0.63910   1.00
C5       1.00939    0.85283    0.58806   1.00
C5       0.99271    0.81216    0.57877   1.00
H2       1.03947    0.84950    0.59985   1.00
O3       1.06761    0.97891    0.77000   1.00
C4       0.99972    1.00032    0.72900   1.00
C3c      0.98868    0.96718    0.70757   1.00
H1       0.97983    0.94099    0.72275   1.00
C3d      1.01062    1.03433    0.70865   1.00
C3       0.98938    0.96705    0.66646   1.00
O2       0.97368    0.93531    0.64752   1.00
C3       1.01207    1.03406    0.66773   1.00
H1       1.02194    1.06038    0.65343   1.00
C2       1.00140    1.00067    0.64561   1.00
C5       1.09561    1.00911    0.77121   1.00
H2       1.10467    1.01627    0.80162   1.00
H2       1.08418    1.03626    0.75734   1.00
C5       1.13139    0.99522    0.74871   1.00
H2       1.12214    0.98702    0.71863   1.00
H2       1.14277    0.96832    0.76302   1.00
C5       1.16301    1.02710    0.74738   1.00
H2       1.17219    1.03562    0.77732   1.00
H2       1.15212    1.05348    0.73189   1.00
C5       1.19923    1.01193    0.72555   1.00
C5       0.99298    1.09091    0.73895   1.00
C5       1.00334    0.90782    0.63930   1.00
H2       0.97269    1.07559    0.75912   1.00
H2       0.97622    1.10089    0.71288   1.00
H2       1.01671    0.89714    0.66700   1.00
H2       1.02732    0.92038    0.62105   1.00
H2       1.01066    0.86892    0.55970   1.00
H2       0.96698    1.13253    0.80753   1.00
H2       0.95336    1.15680    0.76237   1.00
C2       1.00243    1.00113    0.85395   1.00
C3       0.96747    1.00996    0.83403   1.00
O2       0.93711    1.02812    0.85326   1.00
C3       1.03550    0.99027    0.83174   1.00
H1       1.06241    0.98236    0.84615   1.00
C3a      0.96658    1.00876    0.79287   1.00
H1       0.94025    1.01776    0.77798   1.00
C3b      1.03488    0.99032    0.79078   1.00
C4       1.00028    0.99968    0.77100   1.00
O3       1.02456    1.06672    0.72833   1.00
C5       0.90788    1.00074    0.86280   1.00
H2       0.89601    0.98633    0.83609   1.00
C5       0.87529    1.02306    0.88326   1.00
H2       0.91948    0.97780    0.88274   1.00
H2       0.85724    1.03790    0.86068   1.00
H2       0.88918    1.04654    0.90093   1.00
C5       0.84967    0.99680    0.90918   1.00
H2       0.83856    0.97181    0.89176   1.00
C5       0.81466    1.01977    0.92547   1.00
H2       0.86631    0.98561    0.93493   1.00
C5       1.00974    1.12643    0.75983   1.00
H2       1.02450    1.14529    0.73785   1.00
H2       1.03268    1.11622    0.78048   1.00
C5       0.97814    1.14941    0.78200   1.00
C5       0.99533    1.18781    0.79775   1.00
H2       0.96762    0.81515    0.55714   1.00
H2       1.01656    0.79316    0.56553   1.00
H2       0.98159    0.79809    0.60677   1.00
H2       1.21965    1.03734    0.71895   1.00
H2       1.21505    0.98963    0.74449   1.00
H2       1.18981    0.99759    0.69707   1.00
H2       0.80763    1.00898    0.95613   1.00
H2       0.82219    1.05214    0.92656   1.00
H2       0.78826    1.01518    0.90577   1.00
H2       1.02833    1.18767    0.79366   1.00
H2       0.98221    1.21346    0.78116   1.00
H2       0.98818    1.19071    0.83010   1.00
C5       0.48348    0.62570    1.38218   1.00
H2       0.45819    0.61240    1.39745   1.00
H2       0.47094    0.64669    1.36090   1.00
C5       0.50939    0.64717    1.41194   1.00
C5       0.49271    0.68784    1.42123   1.00
H2       0.53947    0.65050    1.40015   1.00
O3       0.56761    0.52109    1.23000   1.00
C4       0.49972    0.49968    1.27100   1.00
C3c      0.48868    0.53282    1.29243   1.00
H1       0.47983    0.55901    1.27725   1.00
C3d      0.51062    0.46567    1.29135   1.00
C3       0.48938    0.53295    1.33354   1.00
O2       0.47368    0.56469    1.35248   1.00
C3       0.51207    0.46594    1.33227   1.00
H1       0.52194    0.43962    1.34657   1.00
C2       0.50140    0.49933    1.35439   1.00
C5       0.59561    0.49089    1.22879   1.00
H2       0.60467    0.48373    1.19838   1.00
H2       0.58418    0.46374    1.24266   1.00
C5       0.63139    0.50478    1.25129   1.00
H2       0.62214    0.51298    1.28137   1.00
H2       0.64277    0.53168    1.23698   1.00
C5       0.66301    0.47290    1.25262   1.00
H2       0.67219    0.46438    1.22268   1.00
H2       0.65212    0.44652    1.26811   1.00
C5       0.69923    0.48807    1.27445   1.00
C5       0.49298    0.40909    1.26105   1.00
C5       0.50334    0.59218    1.36070   1.00
H2       0.47269    0.42441    1.24088   1.00
H2       0.47622    0.39911    1.28712   1.00
H2       0.51671    0.60286    1.33300   1.00
H2       0.52732    0.57962    1.37895   1.00
H2       0.51066    0.63108    1.44030   1.00
H2       0.46698    0.36747    1.19247   1.00
H2       0.45336    0.34320    1.23763   1.00
C2       0.50243    0.49887    1.14605   1.00
C3       0.46747    0.49004    1.16597   1.00
O2       0.43711    0.47188    1.14674   1.00
C3       0.53550    0.50973    1.16826   1.00
H1       0.56241    0.51764    1.15385   1.00
C3a      0.46658    0.49124    1.20713   1.00
H1       0.44025    0.48224    1.22202   1.00
C3b      0.53488    0.50968    1.20922   1.00
C4       0.50028    0.50032    1.22900   1.00
O3       0.52456    0.43328    1.27167   1.00
C5       0.40788    0.49926    1.13720   1.00
H2       0.39601    0.51367    1.16391   1.00
C5       0.37529    0.47694    1.11674   1.00
H2       0.41948    0.52220    1.11726   1.00
H2       0.35724    0.46210    1.13932   1.00
H2       0.38918    0.45346    1.09907   1.00
C5       0.34967    0.50320    1.09082   1.00
H2       0.33856    0.52819    1.10824   1.00
C5       0.31466    0.48023    1.07453   1.00
H2       0.36631    0.51439    1.06507   1.00
C5       0.50974    0.37357    1.24017   1.00
H2       0.52450    0.35471    1.26215   1.00
H2       0.53268    0.38378    1.21952   1.00
C5       0.47814    0.35059    1.21800   1.00
C5       0.49533    0.31219    1.20225   1.00
H2       0.46762    0.68485    1.44286   1.00
H2       0.51656    0.70684    1.43447   1.00
H2       0.48159    0.70191    1.39323   1.00
H2       0.71965    0.46266    1.28105   1.00
H2       0.71505    0.51037    1.25551   1.00
H2       0.68981    0.50241    1.30293   1.00
H2       0.30763    0.49102    1.04387   1.00
H2       0.32219    0.44786    1.07344   1.00
H2       0.28826    0.48482    1.09423   1.00
H2       0.52833    0.31233    1.20634   1.00
H2       0.48221    0.28654    1.21884   1.00
H2       0.48818    0.30929    1.16990   1.00
C5       0.62570    0.88218    0.98348   1.00
H2       0.61240    0.89745    0.95819   1.00
H2       0.64669    0.86090    0.97094   1.00
C5       0.64717    0.91194    1.00939   1.00
C5       0.68784    0.92123    0.99271   1.00
H2       0.65050    0.90015    1.03947   1.00
O3       0.52109    0.73000    1.06761   1.00
C4       0.49968    0.77100    0.99972   1.00
C3c      0.53282    0.79243    0.98868   1.00
H1       0.55901    0.77725    0.97983   1.00
C3d      0.46567    0.79135    1.01062   1.00
C3       0.53295    0.83354    0.98938   1.00
O2       0.56469    0.85248    0.97368   1.00
C3       0.46594    0.83227    1.01207   1.00
H1       0.43962    0.84657    1.02194   1.00
C2       0.49933    0.85439    1.00140   1.00
C5       0.49089    0.72879    1.09561   1.00
H2       0.48373    0.69838    1.10467   1.00
H2       0.46374    0.74266    1.08418   1.00
C5       0.50478    0.75129    1.13139   1.00
H2       0.51298    0.78137    1.12214   1.00
H2       0.53168    0.73698    1.14277   1.00
C5       0.47290    0.75262    1.16301   1.00
H2       0.46438    0.72268    1.17219   1.00
H2       0.44652    0.76811    1.15212   1.00
C5       0.48807    0.77445    1.19923   1.00
C5       0.40909    0.76105    0.99298   1.00
C5       0.59218    0.86070    1.00334   1.00
H2       0.42441    0.74088    0.97269   1.00
H2       0.39911    0.78712    0.97622   1.00
H2       0.60286    0.83300    1.01671   1.00
H2       0.57962    0.87895    1.02732   1.00
H2       0.63108    0.94030    1.01066   1.00
H2       0.36747    0.69247    0.96698   1.00
H2       0.34320    0.73763    0.95336   1.00
C2       0.49887    0.64605    1.00243   1.00
C3       0.49004    0.66597    0.96747   1.00
O2       0.47188    0.64674    0.93711   1.00
C3       0.50973    0.66826    1.03550   1.00
H1       0.51764    0.65385    1.06241   1.00
C3a      0.49124    0.70713    0.96658   1.00
H1       0.48224    0.72202    0.94025   1.00
C3b      0.50968    0.70922    1.03488   1.00
C4       0.50032    0.72900    1.00028   1.00
O3       0.43328    0.77167    1.02456   1.00
C5       0.49926    0.63720    0.90788   1.00
H2       0.51367    0.66391    0.89601   1.00
C5       0.47694    0.61674    0.87529   1.00
H2       0.52220    0.61726    0.91948   1.00
H2       0.46210    0.63932    0.85724   1.00
H2       0.45346    0.59907    0.88918   1.00
C5       0.50320    0.59082    0.84967   1.00
H2       0.52819    0.60824    0.83856   1.00
C5       0.48023    0.57453    0.81466   1.00
H2       0.51439    0.56507    0.86631   1.00
C5       0.37357    0.74017    1.00974   1.00
H2       0.35471    0.76215    1.02450   1.00
H2       0.38378    0.71952    1.03268   1.00
C5       0.35059    0.71800    0.97814   1.00
C5       0.31219    0.70225    0.99533   1.00
H2       0.68485    0.94286    0.96762   1.00
H2       0.70684    0.93447    1.01656   1.00
H2       0.70191    0.89323    0.98159   1.00
H2       0.46266    0.78105    1.21965   1.00
H2       0.51037    0.75551    1.21505   1.00
H2       0.50241    0.80293    1.18981   1.00
H2       0.49102    0.54387    0.80763   1.00
H2       0.44786    0.57344    0.82219   1.00
H2       0.48482    0.59423    0.78826   1.00
H2       0.31233    0.70634    1.02833   1.00
H2       0.28654    0.71884    0.98221   1.00
H2       0.30929    0.66990    0.98818   1.00
C5       0.11782    0.48348    0.87430   1.00
H2       0.10255    0.45819    0.88760   1.00
H2       0.13910    0.47094    0.85331   1.00
C5       0.08806    0.50939    0.85283   1.00
C5       0.07877    0.49271    0.81216   1.00
H2       0.09985    0.53947    0.84950   1.00
O3       0.27000    0.56761    0.97891   1.00
C4       0.22900    0.49972    1.00032   1.00
C3c      0.20757    0.48868    0.96718   1.00
H1       0.22275    0.47983    0.94099   1.00
C3d      0.20865    0.51062    1.03433   1.00
C3       0.16646    0.48938    0.96705   1.00
O2       0.14752    0.47368    0.93531   1.00
C3       0.16773    0.51207    1.03406   1.00
H1       0.15343    0.52194    1.06038   1.00
C2       0.14561    0.50140    1.00067   1.00
C5       0.27121    0.59561    1.00911   1.00
H2       0.30162    0.60467    1.01627   1.00
H2       0.25734    0.58418    1.03626   1.00
C5       0.24871    0.63139    0.99522   1.00
H2       0.21863    0.62214    0.98702   1.00
H2       0.26302    0.64277    0.96832   1.00
C5       0.24738    0.66301    1.02710   1.00
H2       0.27732    0.67219    1.03562   1.00
H2       0.23189    0.65212    1.05348   1.00
C5       0.22555    0.69923    1.01193   1.00
C5       0.23895    0.49298    1.09091   1.00
C5       0.13930    0.50334    0.90782   1.00
H2       0.25912    0.47269    1.07559   1.00
H2       0.21288    0.47622    1.10089   1.00
H2       0.16700    0.51671    0.89714   1.00
H2       0.12105    0.52732    0.92038   1.00
H2       0.05970    0.51066    0.86892   1.00
H2       0.30753    0.46698    1.13253   1.00
H2       0.26237    0.45336    1.15680   1.00
C2       0.35395    0.50243    1.00113   1.00
C3       0.33403    0.46747    1.00996   1.00
O2       0.35326    0.43711    1.02812   1.00
C3       0.33174    0.53550    0.99027   1.00
H1       0.34615    0.56241    0.98236   1.00
C3a      0.29287    0.46658    1.00876   1.00
H1       0.27798    0.44025    1.01776   1.00
C3b      0.29078    0.53488    0.99032   1.00
C4       0.27100    0.50028    0.99968   1.00
O3       0.22833    0.52456    1.06672   1.00
C5       0.36280    0.40788    1.00074   1.00
H2       0.33609    0.39601    0.98633   1.00
C5       0.38326    0.37529    1.02306   1.00
H2       0.38274    0.41948    0.97780   1.00
H2       0.36068    0.35724    1.03790   1.00
H2       0.40093    0.38918    1.04654   1.00
C5       0.40918    0.34967    0.99680   1.00
H2       0.39176    0.33856    0.97181   1.00
C5       0.42547    0.31466    1.01977   1.00
H2       0.43493    0.36631    0.98561   1.00
C5       0.25983    0.50974    1.12643   1.00
H2       0.23785    0.52450    1.14529   1.00
H2       0.28048    0.53268    1.11622   1.00
C5       0.28200    0.47814    1.14941   1.00
C5       0.29775    0.49533    1.18781   1.00
H2       0.05714    0.46762    0.81515   1.00
H2       0.06553    0.51656    0.79316   1.00
H2       0.10677    0.48159    0.79809   1.00
H2       0.21895    0.71965    1.03734   1.00
H2       0.24449    0.71505    0.98963   1.00
H2       0.19707    0.68981    0.99759   1.00
H2       0.45613    0.30763    1.00898   1.00
H2       0.42656    0.32219    1.05214   1.00
H2       0.40577    0.28826    1.01518   1.00
H2       0.29366    0.52833    1.18767   1.00
H2       0.28116    0.48221    1.21346   1.00
H2       0.33010    0.48818    1.19071   1.00
C5       0.88218    0.48348    1.12570   1.00
H2       0.89745    0.45819    1.11240   1.00
H2       0.86090    0.47094    1.14669   1.00
C5       0.91194    0.50939    1.14717   1.00
C5       0.92123    0.49271    1.18784   1.00
H2       0.90015    0.53947    1.15050   1.00
O3       0.73000    0.56761    1.02109   1.00
C4       0.77100    0.49972    0.99968   1.00
C3c      0.79243    0.48868    1.03282   1.00
H1       0.77725    0.47983    1.05901   1.00
C3d      0.79135    0.51062    0.96567   1.00
C3       0.83354    0.48938    1.03295   1.00
O2       0.85248    0.47368    1.06469   1.00
C3       0.83227    0.51207    0.96594   1.00
H1       0.84657    0.52194    0.93962   1.00
C2       0.85439    0.50140    0.99933   1.00
C5       0.72879    0.59561    0.99089   1.00
H2       0.69838    0.60467    0.98373   1.00
H2       0.74266    0.58418    0.96374   1.00
C5       0.75129    0.63139    1.00478   1.00
H2       0.78137    0.62214    1.01298   1.00
H2       0.73698    0.64277    1.03168   1.00
C5       0.75262    0.66301    0.97290   1.00
H2       0.72268    0.67219    0.96438   1.00
H2       0.76811    0.65212    0.94652   1.00
C5       0.77445    0.69923    0.98807   1.00
C5       0.76105    0.49298    0.90909   1.00
C5       0.86070    0.50334    1.09218   1.00
H2       0.74088    0.47269    0.92441   1.00
H2       0.78712    0.47622    0.89911   1.00
H2       0.83300    0.51671    1.10286   1.00
H2       0.87895    0.52732    1.07962   1.00
H2       0.94030    0.51066    1.13108   1.00
H2       0.69247    0.46698    0.86747   1.00
H2       0.73763    0.45336    0.84320   1.00
C2       0.64605    0.50243    0.99887   1.00
C3       0.66597    0.46747    0.99004   1.00
O2       0.64674    0.43711    0.97188   1.00
C3       0.66826    0.53550    1.00973   1.00
H1       0.65385    0.56241    1.01764   1.00
C3a      0.70713    0.46658    0.99124   1.00
H1       0.72202    0.44025    0.98224   1.00
C3b      0.70922    0.53488    1.00968   1.00
C4       0.72900    0.50028    1.00032   1.00
O3       0.77167    0.52456    0.93328   1.00
C5       0.63720    0.40788    0.99926   1.00
H2       0.66391    0.39601    1.01367   1.00
C5       0.61674    0.37529    0.97694   1.00
H2       0.61726    0.41948    1.02220   1.00
H2       0.63932    0.35724    0.96210   1.00
H2       0.59907    0.38918    0.95346   1.00
C5       0.59082    0.34967    1.00320   1.00
H2       0.60824    0.33856    1.02819   1.00
C5       0.57453    0.31466    0.98023   1.00
H2       0.56507    0.36631    1.01439   1.00
C5       0.74017    0.50974    0.87357   1.00
H2       0.76215    0.52450    0.85471   1.00
H2       0.71952    0.53268    0.88378   1.00
C5       0.71800    0.47814    0.85059   1.00
C5       0.70225    0.49533    0.81219   1.00
H2       0.94286    0.46762    1.18485   1.00
H2       0.93447    0.51656    1.20684   1.00
H2       0.89323    0.48159    1.20191   1.00
H2       0.78105    0.71965    0.96266   1.00
H2       0.75551    0.71505    1.01037   1.00
H2       0.80293    0.68981    1.00241   1.00
H2       0.54387    0.30763    0.99102   1.00
H2       0.57344    0.32219    0.94786   1.00
H2       0.59423    0.28826    0.98482   1.00
H2       0.70634    0.52833    0.81233   1.00
H2       0.71884    0.48221    0.78654   1.00
H2       0.66990    0.48818    0.80929   1.00
C5       0.37430    0.11782    0.98348   1.00
H2       0.38760    0.10255    0.95819   1.00
H2       0.35331    0.13910    0.97094   1.00
C5       0.35283    0.08806    1.00939   1.00
C5       0.31216    0.07877    0.99271   1.00
H2       0.34950    0.09985    1.03947   1.00
O3       0.47891    0.27000    1.06761   1.00
C4       0.50032    0.22900    0.99972   1.00
C3c      0.46718    0.20757    0.98868   1.00
H1       0.44099    0.22275    0.97983   1.00
C3d      0.53433    0.20865    1.01062   1.00
C3       0.46705    0.16646    0.98938   1.00
O2       0.43531    0.14752    0.97368   1.00
C3       0.53406    0.16773    1.01207   1.00
H1       0.56038    0.15343    1.02194   1.00
C2       0.50067    0.14561    1.00140   1.00
C5       0.50911    0.27121    1.09561   1.00
H2       0.51627    0.30162    1.10467   1.00
H2       0.53626    0.25734    1.08418   1.00
C5       0.49522    0.24871    1.13139   1.00
H2       0.48702    0.21863    1.12214   1.00
H2       0.46832    0.26302    1.14277   1.00
C5       0.52710    0.24738    1.16301   1.00
H2       0.53562    0.27732    1.17219   1.00
H2       0.55348    0.23189    1.15212   1.00
C5       0.51193    0.22555    1.19923   1.00
C5       0.59091    0.23895    0.99298   1.00
C5       0.40782    0.13930    1.00334   1.00
H2       0.57559    0.25912    0.97269   1.00
H2       0.60089    0.21288    0.97622   1.00
H2       0.39714    0.16700    1.01671   1.00
H2       0.42038    0.12105    1.02732   1.00
H2       0.36892    0.05970    1.01066   1.00
H2       0.63253    0.30753    0.96698   1.00
H2       0.65680    0.26237    0.95336   1.00
C2       0.50113    0.35395    1.00243   1.00
C3       0.50996    0.33403    0.96747   1.00
O2       0.52812    0.35326    0.93711   1.00
C3       0.49027    0.33174    1.03550   1.00
H1       0.48236    0.34615    1.06241   1.00
C3a      0.50876    0.29287    0.96658   1.00
H1       0.51776    0.27798    0.94025   1.00
C3b      0.49032    0.29078    1.03488   1.00
C4       0.49968    0.27100    1.00028   1.00
O3       0.56672    0.22833    1.02456   1.00
C5       0.50074    0.36280    0.90788   1.00
H2       0.48633    0.33609    0.89601   1.00
C5       0.52306    0.38326    0.87529   1.00
H2       0.47780    0.38274    0.91948   1.00
H2       0.53790    0.36068    0.85724   1.00
H2       0.54654    0.40093    0.88918   1.00
C5       0.49680    0.40918    0.84967   1.00
H2       0.47181    0.39176    0.83856   1.00
C5       0.51977    0.42547    0.81466   1.00
H2       0.48561    0.43493    0.86631   1.00
C5       0.62643    0.25983    1.00974   1.00
H2       0.64529    0.23785    1.02450   1.00
H2       0.61622    0.28048    1.03268   1.00
C5       0.64941    0.28200    0.97814   1.00
C5       0.68781    0.29775    0.99533   1.00
H2       0.31515    0.05714    0.96762   1.00
H2       0.29316    0.06553    1.01656   1.00
H2       0.29809    0.10677    0.98159   1.00
H2       0.53734    0.21895    1.21965   1.00
H2       0.48963    0.24449    1.21505   1.00
H2       0.49759    0.19707    1.18981   1.00
H2       0.50898    0.45613    0.80763   1.00
H2       0.55214    0.42656    0.82219   1.00
H2       0.51518    0.40577    0.78826   1.00
H2       0.68767    0.29366    1.02833   1.00
H2       0.71346    0.28116    0.98221   1.00
H2       0.69071    0.33010    0.98818   1.00
C5       0.48348    0.37430    0.61782   1.00
H2       0.45819    0.38760    0.60255   1.00
H2       0.47094    0.35331    0.63910   1.00
C5       0.50939    0.35283    0.58806   1.00
C5       0.49271    0.31216    0.57877   1.00
H2       0.53947    0.34950    0.59985   1.00
O3       0.56761    0.47891    0.77000   1.00
C4       0.49972    0.50032    0.72900   1.00
C3c      0.48868    0.46718    0.70757   1.00
H1       0.47983    0.44099    0.72275   1.00
C3d      0.51062    0.53433    0.70865   1.00
C3       0.48938    0.46705    0.66646   1.00
O2       0.47368    0.43531    0.64752   1.00
C3       0.51207    0.53406    0.66773   1.00
H1       0.52194    0.56038    0.65343   1.00
C2       0.50140    0.50067    0.64561   1.00
C5       0.59561    0.50911    0.77121   1.00
H2       0.60467    0.51627    0.80162   1.00
H2       0.58418    0.53626    0.75734   1.00
C5       0.63139    0.49522    0.74871   1.00
H2       0.62214    0.48702    0.71863   1.00
H2       0.64277    0.46832    0.76302   1.00
C5       0.66301    0.52710    0.74738   1.00
H2       0.67219    0.53562    0.77732   1.00
H2       0.65212    0.55348    0.73189   1.00
C5       0.69923    0.51193    0.72555   1.00
C5       0.49298    0.59091    0.73895   1.00
C5       0.50334    0.40782    0.63930   1.00
H2       0.47269    0.57559    0.75912   1.00
H2       0.47622    0.60089    0.71288   1.00
H2       0.51671    0.39714    0.66700   1.00
H2       0.52732    0.42038    0.62105   1.00
H2       0.51066    0.36892    0.55970   1.00
H2       0.46698    0.63253    0.80753   1.00
H2       0.45336    0.65680    0.76237   1.00
C2       0.50243    0.50113    0.85395   1.00
C3       0.46747    0.50996    0.83403   1.00
O2       0.43711    0.52812    0.85326   1.00
C3       0.53550    0.49027    0.83174   1.00
H1       0.56241    0.48236    0.84615   1.00
C3a      0.46658    0.50876    0.79287   1.00
H1       0.44025    0.51776    0.77798   1.00
C3b      0.53488    0.49032    0.79078   1.00
C4       0.50028    0.49968    0.77100   1.00
O3       0.52456    0.56672    0.72833   1.00
C5       0.40788    0.50074    0.86280   1.00
H2       0.39601    0.48633    0.83609   1.00
C5       0.37529    0.52306    0.88326   1.00
H2       0.41948    0.47780    0.88274   1.00
H2       0.35724    0.53790    0.86068   1.00
H2       0.38918    0.54654    0.90093   1.00
C5       0.34967    0.49680    0.90918   1.00
H2       0.33856    0.47181    0.89176   1.00
C5       0.31466    0.51977    0.92547   1.00
H2       0.36631    0.48561    0.93493   1.00
C5       0.50974    0.62643    0.75983   1.00
H2       0.52450    0.64529    0.73785   1.00
H2       0.53268    0.61622    0.78048   1.00
C5       0.47814    0.64941    0.78200   1.00
C5       0.49533    0.68781    0.79775   1.00
H2       0.46762    0.31515    0.55714   1.00
H2       0.51656    0.29316    0.56553   1.00
H2       0.48159    0.29809    0.60677   1.00
H2       0.71965    0.53734    0.71895   1.00
H2       0.71505    0.48963    0.74449   1.00
H2       0.68981    0.49759    0.69707   1.00
H2       0.30763    0.50898    0.95613   1.00
H2       0.32219    0.55214    0.92656   1.00
H2       0.28826    0.51518    0.90577   1.00
H2       0.52833    0.68767    0.79366   1.00
H2       0.48221    0.71346    0.78116   1.00
H2       0.48818    0.69071    0.83010   1.00
C5       0.48348    1.12570    0.88218   1.00
H2       0.45819    1.11240    0.89745   1.00
H2       0.47094    1.14669    0.86090   1.00
C5       0.50939    1.14717    0.91194   1.00
C5       0.49271    1.18784    0.92123   1.00
H2       0.53947    1.15050    0.90015   1.00
O3       0.56761    1.02109    0.73000   1.00
C4       0.49972    0.99968    0.77100   1.00
C3c      0.48868    1.03282    0.79243   1.00
H1       0.47983    1.05901    0.77725   1.00
C3d      0.51062    0.96567    0.79135   1.00
C3       0.48938    1.03295    0.83354   1.00
O2       0.47368    1.06469    0.85248   1.00
C3       0.51207    0.96594    0.83227   1.00
H1       0.52194    0.93962    0.84657   1.00
C2       0.50140    0.99933    0.85439   1.00
C5       0.59561    0.99089    0.72879   1.00
H2       0.60467    0.98373    0.69838   1.00
H2       0.58418    0.96374    0.74266   1.00
C5       0.63139    1.00478    0.75129   1.00
H2       0.62214    1.01298    0.78137   1.00
H2       0.64277    1.03168    0.73698   1.00
C5       0.66301    0.97290    0.75262   1.00
H2       0.67219    0.96438    0.72268   1.00
H2       0.65212    0.94652    0.76811   1.00
C5       0.69923    0.98807    0.77445   1.00
C5       0.49298    0.90909    0.76105   1.00
C5       0.50334    1.09218    0.86070   1.00
H2       0.47269    0.92441    0.74088   1.00
H2       0.47622    0.89911    0.78712   1.00
H2       0.51671    1.10286    0.83300   1.00
H2       0.52732    1.07962    0.87895   1.00
H2       0.51066    1.13108    0.94030   1.00
H2       0.46698    0.86747    0.69247   1.00
H2       0.45336    0.84320    0.73763   1.00
C2       0.50243    0.99887    0.64605   1.00
C3       0.46747    0.99004    0.66597   1.00
O2       0.43711    0.97188    0.64674   1.00
C3       0.53550    1.00973    0.66826   1.00
H1       0.56241    1.01764    0.65385   1.00
C3a      0.46658    0.99124    0.70713   1.00
H1       0.44025    0.98224    0.72202   1.00
C3b      0.53488    1.00968    0.70922   1.00
C4       0.50028    1.00032    0.72900   1.00
O3       0.52456    0.93328    0.77167   1.00
C5       0.40788    0.99926    0.63720   1.00
H2       0.39601    1.01367    0.66391   1.00
C5       0.37529    0.97694    0.61674   1.00
H2       0.41948    1.02220    0.61726   1.00
H2       0.35724    0.96210    0.63932   1.00
H2       0.38918    0.95346    0.59907   1.00
C5       0.34967    1.00320    0.59082   1.00
H2       0.33856    1.02819    0.60824   1.00
C5       0.31466    0.98023    0.57453   1.00
H2       0.36631    1.01439    0.56507   1.00
C5       0.50974    0.87357    0.74017   1.00
H2       0.52450    0.85471    0.76215   1.00
H2       0.53268    0.88378    0.71952   1.00
C5       0.47814    0.85059    0.71800   1.00
C5       0.49533    0.81219    0.70225   1.00
H2       0.46762    1.18485    0.94286   1.00
H2       0.51656    1.20684    0.93447   1.00
H2       0.48159    1.20191    0.89323   1.00
H2       0.71965    0.96266    0.78105   1.00
H2       0.71505    1.01037    0.75551   1.00
H2       0.68981    1.00241    0.80293   1.00
H2       0.30763    0.99102    0.54387   1.00
H2       0.32219    0.94786    0.57344   1.00
H2       0.28826    0.98482    0.59423   1.00
H2       0.52833    0.81233    0.70634   1.00
H2       0.48221    0.78654    0.71884   1.00
H2       0.48818    0.80929    0.66990   1.00
C5       0.62570    1.38218    0.48348   1.00
H2       0.61240    1.39745    0.45819   1.00
H2       0.64669    1.36090    0.47094   1.00
C5       0.64717    1.41194    0.50939   1.00
C5       0.68784    1.42123    0.49271   1.00
H2       0.65050    1.40015    0.53947   1.00
O3       0.52109    1.23000    0.56761   1.00
C4       0.49968    1.27100    0.49972   1.00
C3c      0.53282    1.29243    0.48868   1.00
H1       0.55901    1.27725    0.47983   1.00
C3d      0.46567    1.29135    0.51062   1.00
C3       0.53295    1.33354    0.48938   1.00
O2       0.56469    1.35248    0.47368   1.00
C3       0.46594    1.33227    0.51207   1.00
H1       0.43962    1.34657    0.52194   1.00
C2       0.49933    1.35439    0.50140   1.00
C5       0.49089    1.22879    0.59561   1.00
H2       0.48373    1.19838    0.60467   1.00
H2       0.46374    1.24266    0.58418   1.00
C5       0.50478    1.25129    0.63139   1.00
H2       0.51298    1.28137    0.62214   1.00
H2       0.53168    1.23698    0.64277   1.00
C5       0.47290    1.25262    0.66301   1.00
H2       0.46438    1.22268    0.67219   1.00
H2       0.44652    1.26811    0.65212   1.00
C5       0.48807    1.27445    0.69923   1.00
C5       0.40909    1.26105    0.49298   1.00
C5       0.59218    1.36070    0.50334   1.00
H2       0.42441    1.24088    0.47269   1.00
H2       0.39911    1.28712    0.47622   1.00
H2       0.60286    1.33300    0.51671   1.00
H2       0.57962    1.37895    0.52732   1.00
H2       0.63108    1.44030    0.51066   1.00
H2       0.36747    1.19247    0.46698   1.00
H2       0.34320    1.23763    0.45336   1.00
C2       0.49887    1.14605    0.50243   1.00
C3       0.49004    1.16597    0.46747   1.00
O2       0.47188    1.14674    0.43711   1.00
C3       0.50973    1.16826    0.53550   1.00
H1       0.51764    1.15385    0.56241   1.00
C3a      0.49124    1.20713    0.46658   1.00
H1       0.48224    1.22202    0.44025   1.00
C3b      0.50968    1.20922    0.53488   1.00
C4       0.50032    1.22900    0.50028   1.00
O3       0.43328    1.27167    0.52456   1.00
C5       0.49926    1.13720    0.40788   1.00
H2       0.51367    1.16391    0.39601   1.00
C5       0.47694    1.11674    0.37529   1.00
H2       0.52220    1.11726    0.41948   1.00
H2       0.46210    1.13932    0.35724   1.00
H2       0.45346    1.09907    0.38918   1.00
C5       0.50320    1.09082    0.34967   1.00
H2       0.52819    1.10824    0.33856   1.00
C5       0.48023    1.07453    0.31466   1.00
H2       0.51439    1.06507    0.36631   1.00
C5       0.37357    1.24017    0.50974   1.00
H2       0.35471    1.26215    0.52450   1.00
H2       0.38378    1.21952    0.53268   1.00
C5       0.35059    1.21800    0.47814   1.00
C5       0.31219    1.20225    0.49533   1.00
H2       0.68485    1.44286    0.46762   1.00
H2       0.70684    1.43447    0.51656   1.00
H2       0.70191    1.39323    0.48159   1.00
H2       0.46266    1.28105    0.71965   1.00
H2       0.51037    1.25551    0.71505   1.00
H2       0.50241    1.30293    0.68981   1.00
H2       0.49102    1.04387    0.30763   1.00
H2       0.44786    1.07344    0.32219   1.00
H2       0.48482    1.09423    0.28826   1.00
H2       0.31233    1.20634    0.52833   1.00
H2       0.28654    1.21884    0.48221   1.00
H2       0.30929    1.16990    0.48818   1.00
C5       0.11782    0.98348    0.37430   1.00
H2       0.10255    0.95819    0.38760   1.00
H2       0.13910    0.97094    0.35331   1.00
C5       0.08806    1.00939    0.35283   1.00
C5       0.07877    0.99271    0.31216   1.00
H2       0.09985    1.03947    0.34950   1.00
O3       0.27000    1.06761    0.47891   1.00
C4       0.22900    0.99972    0.50032   1.00
C3c      0.20757    0.98868    0.46718   1.00
H1       0.22275    0.97983    0.44099   1.00
C3d      0.20865    1.01062    0.53433   1.00
C3       0.16646    0.98938    0.46705   1.00
O2       0.14752    0.97368    0.43531   1.00
C3       0.16773    1.01207    0.53406   1.00
H1       0.15343    1.02194    0.56038   1.00
C2       0.14561    1.00140    0.50067   1.00
C5       0.27121    1.09561    0.50911   1.00
H2       0.30162    1.10467    0.51627   1.00
H2       0.25734    1.08418    0.53626   1.00
C5       0.24871    1.13139    0.49522   1.00
H2       0.21863    1.12214    0.48702   1.00
H2       0.26302    1.14277    0.46832   1.00
C5       0.24738    1.16301    0.52710   1.00
H2       0.27732    1.17219    0.53562   1.00
H2       0.23189    1.15212    0.55348   1.00
C5       0.22555    1.19923    0.51193   1.00
C5       0.23895    0.99298    0.59091   1.00
C5       0.13930    1.00334    0.40782   1.00
H2       0.25912    0.97269    0.57559   1.00
H2       0.21288    0.97622    0.60089   1.00
H2       0.16700    1.01671    0.39714   1.00
H2       0.12105    1.02732    0.42038   1.00
H2       0.05970    1.01066    0.36892   1.00
H2       0.30753    0.96698    0.63253   1.00
H2       0.26237    0.95336    0.65680   1.00
C2       0.35395    1.00243    0.50113   1.00
C3       0.33403    0.96747    0.50996   1.00
O2       0.35326    0.93711    0.52812   1.00
C3       0.33174    1.03550    0.49027   1.00
H1       0.34615    1.06241    0.48236   1.00
C3a      0.29287    0.96658    0.50876   1.00
H1       0.27798    0.94025    0.51776   1.00
C3b      0.29078    1.03488    0.49032   1.00
C4       0.27100    1.00028    0.49968   1.00
O3       0.22833    1.02456    0.56672   1.00
C5       0.36280    0.90788    0.50074   1.00
H2       0.33609    0.89601    0.48633   1.00
C5       0.38326    0.87529    0.52306   1.00
H2       0.38274    0.91948    0.47780   1.00
H2       0.36068    0.85724    0.53790   1.00
H2       0.40093    0.88918    0.54654   1.00
C5       0.40918    0.84967    0.49680   1.00
H2       0.39176    0.83856    0.47181   1.00
C5       0.42547    0.81466    0.51977   1.00
H2       0.43493    0.86631    0.48561   1.00
C5       0.25983    1.00974    0.62643   1.00
H2       0.23785    1.02450    0.64529   1.00
H2       0.28048    1.03268    0.61622   1.00
C5       0.28200    0.97814    0.64941   1.00
C5       0.29775    0.99533    0.68781   1.00
H2       0.05714    0.96762    0.31515   1.00
H2       0.06553    1.01656    0.29316   1.00
H2       0.10677    0.98159    0.29809   1.00
H2       0.21895    1.21965    0.53734   1.00
H2       0.24449    1.21505    0.48963   1.00
H2       0.19707    1.18981    0.49759   1.00
H2       0.45613    0.80763    0.50898   1.00
H2       0.42656    0.82219    0.55214   1.00
H2       0.40577    0.78826    0.51518   1.00
H2       0.29366    1.02833    0.68767   1.00
H2       0.28116    0.98221    0.71346   1.00
H2       0.33010    0.98818    0.69071   1.00
C5       0.88218    0.98348    0.62570   1.00
H2       0.89745    0.95819    0.61240   1.00
H2       0.86090    0.97094    0.64669   1.00
C5       0.91194    1.00939    0.64717   1.00
C5       0.92123    0.99271    0.68784   1.00
H2       0.90015    1.03947    0.65050   1.00
O3       0.73000    1.06761    0.52109   1.00
C4       0.77100    0.99972    0.49968   1.00
C3c      0.79243    0.98868    0.53282   1.00
H1       0.77725    0.97983    0.55901   1.00
C3d      0.79135    1.01062    0.46567   1.00
C3       0.83354    0.98938    0.53295   1.00
O2       0.85248    0.97368    0.56469   1.00
C3       0.83227    1.01207    0.46594   1.00
H1       0.84657    1.02194    0.43962   1.00
C2       0.85439    1.00140    0.49933   1.00
C5       0.72879    1.09561    0.49089   1.00
H2       0.69838    1.10467    0.48373   1.00
H2       0.74266    1.08418    0.46374   1.00
C5       0.75129    1.13139    0.50478   1.00
H2       0.78137    1.12214    0.51298   1.00
H2       0.73698    1.14277    0.53168   1.00
C5       0.75262    1.16301    0.47290   1.00
H2       0.72268    1.17219    0.46438   1.00
H2       0.76811    1.15212    0.44652   1.00
C5       0.77445    1.19923    0.48807   1.00
C5       0.76105    0.99298    0.40909   1.00
C5       0.86070    1.00334    0.59218   1.00
H2       0.74088    0.97269    0.42441   1.00
H2       0.78712    0.97622    0.39911   1.00
H2       0.83300    1.01671    0.60286   1.00
H2       0.87895    1.02732    0.57962   1.00
H2       0.94030    1.01066    0.63108   1.00
H2       0.69247    0.96698    0.36747   1.00
H2       0.73763    0.95336    0.34320   1.00
C2       0.64605    1.00243    0.49887   1.00
C3       0.66597    0.96747    0.49004   1.00
O2       0.64674    0.93711    0.47188   1.00
C3       0.66826    1.03550    0.50973   1.00
H1       0.65385    1.06241    0.51764   1.00
C3a      0.70713    0.96658    0.49124   1.00
H1       0.72202    0.94025    0.48224   1.00
C3b      0.70922    1.03488    0.50968   1.00
C4       0.72900    1.00028    0.50032   1.00
O3       0.77167    1.02456    0.43328   1.00
C5       0.63720    0.90788    0.49926   1.00
H2       0.66391    0.89601    0.51367   1.00
C5       0.61674    0.87529    0.47694   1.00
H2       0.61726    0.91948    0.52220   1.00
H2       0.63932    0.85724    0.46210   1.00
H2       0.59907    0.88918    0.45346   1.00
C5       0.59082    0.84967    0.50320   1.00
H2       0.60824    0.83856    0.52819   1.00
C5       0.57453    0.81466    0.48023   1.00
H2       0.56507    0.86631    0.51439   1.00
C5       0.74017    1.00974    0.37357   1.00
H2       0.76215    1.02450    0.35471   1.00
H2       0.71952    1.03268    0.38378   1.00
C5       0.71800    0.97814    0.35059   1.00
C5       0.70225    0.99533    0.31219   1.00
H2       0.94286    0.96762    0.68485   1.00
H2       0.93447    1.01656    0.70684   1.00
H2       0.89323    0.98159    0.70191   1.00
H2       0.78105    1.21965    0.46266   1.00
H2       0.75551    1.21505    0.51037   1.00
H2       0.80293    1.18981    0.50241   1.00
H2       0.54387    0.80763    0.49102   1.00
H2       0.57344    0.82219    0.44786   1.00
H2       0.59423    0.78826    0.48482   1.00
H2       0.70634    1.02833    0.31233   1.00
H2       0.71884    0.98221    0.28654   1.00
H2       0.66990    0.98818    0.30929   1.00
C5       0.37430    0.61782    0.48348   1.00
H2       0.38760    0.60255    0.45819   1.00
H2       0.35331    0.63910    0.47094   1.00
C5       0.35283    0.58806    0.50939   1.00
C5       0.31216    0.57877    0.49271   1.00
H2       0.34950    0.59985    0.53947   1.00
O3       0.47891    0.77000    0.56761   1.00
C4       0.50032    0.72900    0.49972   1.00
C3c      0.46718    0.70757    0.48868   1.00
H1       0.44099    0.72275    0.47983   1.00
C3d      0.53433    0.70865    0.51062   1.00
C3       0.46705    0.66646    0.48938   1.00
O2       0.43531    0.64752    0.47368   1.00
C3       0.53406    0.66773    0.51207   1.00
H1       0.56038    0.65343    0.52194   1.00
C2       0.50067    0.64561    0.50140   1.00
C5       0.50911    0.77121    0.59561   1.00
H2       0.51627    0.80162    0.60467   1.00
H2       0.53626    0.75734    0.58418   1.00
C5       0.49522    0.74871    0.63139   1.00
H2       0.48702    0.71863    0.62214   1.00
H2       0.46832    0.76302    0.64277   1.00
C5       0.52710    0.74738    0.66301   1.00
H2       0.53562    0.77732    0.67219   1.00
H2       0.55348    0.73189    0.65212   1.00
C5       0.51193    0.72555    0.69923   1.00
C5       0.59091    0.73895    0.49298   1.00
C5       0.40782    0.63930    0.50334   1.00
H2       0.57559    0.75912    0.47269   1.00
H2       0.60089    0.71288    0.47622   1.00
H2       0.39714    0.66700    0.51671   1.00
H2       0.42038    0.62105    0.52732   1.00
H2       0.36892    0.55970    0.51066   1.00
H2       0.63253    0.80753    0.46698   1.00
H2       0.65680    0.76237    0.45336   1.00
C2       0.50113    0.85395    0.50243   1.00
C3       0.50996    0.83403    0.46747   1.00
O2       0.52812    0.85326    0.43711   1.00
C3       0.49027    0.83174    0.53550   1.00
H1       0.48236    0.84615    0.56241   1.00
C3a      0.50876    0.79287    0.46658   1.00
H1       0.51776    0.77798    0.44025   1.00
C3b      0.49032    0.79078    0.53488   1.00
C4       0.49968    0.77100    0.50028   1.00
O3       0.56672    0.72833    0.52456   1.00
C5       0.50074    0.86280    0.40788   1.00
H2       0.48633    0.83609    0.39601   1.00
C5       0.52306    0.88326    0.37529   1.00
H2       0.47780    0.88274    0.41948   1.00
H2       0.53790    0.86068    0.35724   1.00
H2       0.54654    0.90093    0.38918   1.00
C5       0.49680    0.90918    0.34967   1.00
H2       0.47181    0.89176    0.33856   1.00
C5       0.51977    0.92547    0.31466   1.00
H2       0.48561    0.93493    0.36631   1.00
C5       0.62643    0.75983    0.50974   1.00
H2       0.64529    0.73785    0.52450   1.00
H2       0.61622    0.78048    0.53268   1.00
C5       0.64941    0.78200    0.47814   1.00
C5       0.68781    0.79775    0.49533   1.00
H2       0.31515    0.55714    0.46762   1.00
H2       0.29316    0.56553    0.51656   1.00
H2       0.29809    0.60677    0.48159   1.00
H2       0.53734    0.71895    0.71965   1.00
H2       0.48963    0.74449    0.71505   1.00
H2       0.49759    0.69707    0.68981   1.00
H2       0.50898    0.95613    0.30763   1.00
H2       0.55214    0.92656    0.32219   1.00
H2       0.51518    0.90577    0.28826   1.00
H2       0.68767    0.79366    0.52833   1.00
H2       0.71346    0.78116    0.48221   1.00
H2       0.69071    0.83010    0.48818   1.00
C5       0.48348    0.87430    0.11782   1.00
H2       0.45819    0.88760    0.10255   1.00
H2       0.47094    0.85331    0.13910   1.00
C5       0.50939    0.85283    0.08806   1.00
C5       0.49271    0.81216    0.07877   1.00
H2       0.53947    0.84950    0.09985   1.00
O3       0.56761    0.97891    0.27000   1.00
C4       0.49972    1.00032    0.22900   1.00
C3c      0.48868    0.96718    0.20757   1.00
H1       0.47983    0.94099    0.22275   1.00
C3d      0.51062    1.03433    0.20865   1.00
C3       0.48938    0.96705    0.16646   1.00
O2       0.47368    0.93531    0.14752   1.00
C3       0.51207    1.03406    0.16773   1.00
H1       0.52194    1.06038    0.15343   1.00
C2       0.50140    1.00067    0.14561   1.00
C5       0.59561    1.00911    0.27121   1.00
H2       0.60467    1.01627    0.30162   1.00
H2       0.58418    1.03626    0.25734   1.00
C5       0.63139    0.99522    0.24871   1.00
H2       0.62214    0.98702    0.21863   1.00
H2       0.64277    0.96832    0.26302   1.00
C5       0.66301    1.02710    0.24738   1.00
H2       0.67219    1.03562    0.27732   1.00
H2       0.65212    1.05348    0.23189   1.00
C5       0.69923    1.01193    0.22555   1.00
C5       0.49298    1.09091    0.23895   1.00
C5       0.50334    0.90782    0.13930   1.00
H2       0.47269    1.07559    0.25912   1.00
H2       0.47622    1.10089    0.21288   1.00
H2       0.51671    0.89714    0.16700   1.00
H2       0.52732    0.92038    0.12105   1.00
H2       0.51066    0.86892    0.05970   1.00
H2       0.46698    1.13253    0.30753   1.00
H2       0.45336    1.15680    0.26237   1.00
C2       0.50243    1.00113    0.35395   1.00
C3       0.46747    1.00996    0.33403   1.00
O2       0.43711    1.02812    0.35326   1.00
C3       0.53550    0.99027    0.33174   1.00
H1       0.56241    0.98236    0.34615   1.00
C3a      0.46658    1.00876    0.29287   1.00
H1       0.44025    1.01776    0.27798   1.00
C3b      0.53488    0.99032    0.29078   1.00
C4       0.50028    0.99968    0.27100   1.00
O3       0.52456    1.06672    0.22833   1.00
C5       0.40788    1.00074    0.36280   1.00
H2       0.39601    0.98633    0.33609   1.00
C5       0.37529    1.02306    0.38326   1.00
H2       0.41948    0.97780    0.38274   1.00
H2       0.35724    1.03790    0.36068   1.00
H2       0.38918    1.04654    0.40093   1.00
C5       0.34967    0.99680    0.40918   1.00
H2       0.33856    0.97181    0.39176   1.00
C5       0.31466    1.01977    0.42547   1.00
H2       0.36631    0.98561    0.43493   1.00
C5       0.50974    1.12643    0.25983   1.00
H2       0.52450    1.14529    0.23785   1.00
H2       0.53268    1.11622    0.28048   1.00
C5       0.47814    1.14941    0.28200   1.00
C5       0.49533    1.18781    0.29775   1.00
H2       0.46762    0.81515    0.05714   1.00
H2       0.51656    0.79316    0.06553   1.00
H2       0.48159    0.79809    0.10677   1.00
H2       0.71965    1.03734    0.21895   1.00
H2       0.71505    0.98963    0.24449   1.00
H2       0.68981    0.99759    0.19707   1.00
H2       0.30763    1.00898    0.45613   1.00
H2       0.32219    1.05214    0.42656   1.00
H2       0.28826    1.01518    0.40577   1.00
H2       0.52833    1.18767    0.29366   1.00
H2       0.48221    1.21346    0.28116   1.00
H2       0.48818    1.19071    0.33010   1.00
C5       0.98348    0.62570    0.88218   1.00
H2       0.95819    0.61240    0.89745   1.00
H2       0.97094    0.64669    0.86090   1.00
C5       1.00939    0.64717    0.91194   1.00
C5       0.99271    0.68784    0.92123   1.00
H2       1.03947    0.65050    0.90015   1.00
O3       1.06761    0.52109    0.73000   1.00
C4       0.99972    0.49968    0.77100   1.00
C3c      0.98868    0.53282    0.79243   1.00
H1       0.97983    0.55901    0.77725   1.00
C3d      1.01062    0.46567    0.79135   1.00
C3       0.98938    0.53295    0.83354   1.00
O2       0.97368    0.56469    0.85248   1.00
C3       1.01207    0.46594    0.83227   1.00
H1       1.02194    0.43962    0.84657   1.00
C2       1.00140    0.49933    0.85439   1.00
C5       1.09561    0.49089    0.72879   1.00
H2       1.10467    0.48373    0.69838   1.00
H2       1.08418    0.46374    0.74266   1.00
C5       1.13139    0.50478    0.75129   1.00
H2       1.12214    0.51298    0.78137   1.00
H2       1.14277    0.53168    0.73698   1.00
C5       1.16301    0.47290    0.75262   1.00
H2       1.17219    0.46438    0.72268   1.00
H2       1.15212    0.44652    0.76811   1.00
C5       1.19923    0.48807    0.77445   1.00
C5       0.99298    0.40909    0.76105   1.00
C5       1.00334    0.59218    0.86070   1.00
H2       0.97269    0.42441    0.74088   1.00
H2       0.97622    0.39911    0.78712   1.00
H2       1.01671    0.60286    0.83300   1.00
H2       1.02732    0.57962    0.87895   1.00
H2       1.01066    0.63108    0.94030   1.00
H2       0.96698    0.36747    0.69247   1.00
H2       0.95336    0.34320    0.73763   1.00
C2       1.00243    0.49887    0.64605   1.00
C3       0.96747    0.49004    0.66597   1.00
O2       0.93711    0.47188    0.64674   1.00
C3       1.03550    0.50973    0.66826   1.00
H1       1.06241    0.51764    0.65385   1.00
C3a      0.96658    0.49124    0.70713   1.00
H1       0.94025    0.48224    0.72202   1.00
C3b      1.03488    0.50968    0.70922   1.00
C4       1.00028    0.50032    0.72900   1.00
O3       1.02456    0.43328    0.77167   1.00
C5       0.90788    0.49926    0.63720   1.00
H2       0.89601    0.51367    0.66391   1.00
C5       0.87529    0.47694    0.61674   1.00
H2       0.91948    0.52220    0.61726   1.00
H2       0.85724    0.46210    0.63932   1.00
H2       0.88918    0.45346    0.59907   1.00
C5       0.84967    0.50320    0.59082   1.00
H2       0.83856    0.52819    0.60824   1.00
C5       0.81466    0.48023    0.57453   1.00
H2       0.86631    0.51439    0.56507   1.00
C5       1.00974    0.37357    0.74017   1.00
H2       1.02450    0.35471    0.76215   1.00
H2       1.03268    0.38378    0.71952   1.00
C5       0.97814    0.35059    0.71800   1.00
C5       0.99533    0.31219    0.70225   1.00
H2       0.96762    0.68485    0.94286   1.00
H2       1.01656    0.70684    0.93447   1.00
H2       0.98159    0.70191    0.89323   1.00
H2       1.21965    0.46266    0.78105   1.00
H2       1.21505    0.51037    0.75551   1.00
H2       1.18981    0.50241    0.80293   1.00
H2       0.80763    0.49102    0.54387   1.00
H2       0.82219    0.44786    0.57344   1.00
H2       0.78826    0.48482    0.59423   1.00
H2       1.02833    0.31233    0.70634   1.00
H2       0.98221    0.28654    0.71884   1.00
H2       0.98818    0.30929    0.66990   1.00
C5       1.12570    0.88218    0.48348   1.00
H2       1.11240    0.89745    0.45819   1.00
H2       1.14669    0.86090    0.47094   1.00
C5       1.14717    0.91194    0.50939   1.00
C5       1.18784    0.92123    0.49271   1.00
H2       1.15050    0.90015    0.53947   1.00
O3       1.02109    0.73000    0.56761   1.00
C4       0.99968    0.77100    0.49972   1.00
C3c      1.03282    0.79243    0.48868   1.00
H1       1.05901    0.77725    0.47983   1.00
C3d      0.96567    0.79135    0.51062   1.00
C3       1.03295    0.83354    0.48938   1.00
O2       1.06469    0.85248    0.47368   1.00
C3       0.96594    0.83227    0.51207   1.00
H1       0.93962    0.84657    0.52194   1.00
C2       0.99933    0.85439    0.50140   1.00
C5       0.99089    0.72879    0.59561   1.00
H2       0.98373    0.69838    0.60467   1.00
H2       0.96374    0.74266    0.58418   1.00
C5       1.00478    0.75129    0.63139   1.00
H2       1.01298    0.78137    0.62214   1.00
H2       1.03168    0.73698    0.64277   1.00
C5       0.97290    0.75262    0.66301   1.00
H2       0.96438    0.72268    0.67219   1.00
H2       0.94652    0.76811    0.65212   1.00
C5       0.98807    0.77445    0.69923   1.00
C5       0.90909    0.76105    0.49298   1.00
C5       1.09218    0.86070    0.50334   1.00
H2       0.92441    0.74088    0.47269   1.00
H2       0.89911    0.78712    0.47622   1.00
H2       1.10286    0.83300    0.51671   1.00
H2       1.07962    0.87895    0.52732   1.00
H2       1.13108    0.94030    0.51066   1.00
H2       0.86747    0.69247    0.46698   1.00
H2       0.84320    0.73763    0.45336   1.00
C2       0.99887    0.64605    0.50243   1.00
C3       0.99004    0.66597    0.46747   1.00
O2       0.97188    0.64674    0.43711   1.00
C3       1.00973    0.66826    0.53550   1.00
H1       1.01764    0.65385    0.56241   1.00
C3a      0.99124    0.70713    0.46658   1.00
H1       0.98224    0.72202    0.44025   1.00
C3b      1.00968    0.70922    0.53488   1.00
C4       1.00032    0.72900    0.50028   1.00
O3       0.93328    0.77167    0.52456   1.00
C5       0.99926    0.63720    0.40788   1.00
H2       1.01367    0.66391    0.39601   1.00
C5       0.97694    0.61674    0.37529   1.00
H2       1.02220    0.61726    0.41948   1.00
H2       0.96210    0.63932    0.35724   1.00
H2       0.95346    0.59907    0.38918   1.00
C5       1.00320    0.59082    0.34967   1.00
H2       1.02819    0.60824    0.33856   1.00
C5       0.98023    0.57453    0.31466   1.00
H2       1.01439    0.56507    0.36631   1.00
C5       0.87357    0.74017    0.50974   1.00
H2       0.85471    0.76215    0.52450   1.00
H2       0.88378    0.71952    0.53268   1.00
C5       0.85059    0.71800    0.47814   1.00
C5       0.81219    0.70225    0.49533   1.00
H2       1.18485    0.94286    0.46762   1.00
H2       1.20684    0.93447    0.51656   1.00
H2       1.20191    0.89323    0.48159   1.00
H2       0.96266    0.78105    0.71965   1.00
H2       1.01037    0.75551    0.71505   1.00
H2       1.00241    0.80293    0.68981   1.00
H2       0.99102    0.54387    0.30763   1.00
H2       0.94786    0.57344    0.32219   1.00
H2       0.98482    0.59423    0.28826   1.00
H2       0.81233    0.70634    0.52833   1.00
H2       0.78654    0.71884    0.48221   1.00
H2       0.80929    0.66990    0.48818   1.00
C5       0.61782    0.48348    0.37430   1.00
H2       0.60255    0.45819    0.38760   1.00
H2       0.63910    0.47094    0.35331   1.00
C5       0.58806    0.50939    0.35283   1.00
C5       0.57877    0.49271    0.31216   1.00
H2       0.59985    0.53947    0.34950   1.00
O3       0.77000    0.56761    0.47891   1.00
C4       0.72900    0.49972    0.50032   1.00
C3c      0.70757    0.48868    0.46718   1.00
H1       0.72275    0.47983    0.44099   1.00
C3d      0.70865    0.51062    0.53433   1.00
C3       0.66646    0.48938    0.46705   1.00
O2       0.64752    0.47368    0.43531   1.00
C3       0.66773    0.51207    0.53406   1.00
H1       0.65343    0.52194    0.56038   1.00
C2       0.64561    0.50140    0.50067   1.00
C5       0.77121    0.59561    0.50911   1.00
H2       0.80162    0.60467    0.51627   1.00
H2       0.75734    0.58418    0.53626   1.00
C5       0.74871    0.63139    0.49522   1.00
H2       0.71863    0.62214    0.48702   1.00
H2       0.76302    0.64277    0.46832   1.00
C5       0.74738    0.66301    0.52710   1.00
H2       0.77732    0.67219    0.53562   1.00
H2       0.73189    0.65212    0.55348   1.00
C5       0.72555    0.69923    0.51193   1.00
C5       0.73895    0.49298    0.59091   1.00
C5       0.63930    0.50334    0.40782   1.00
H2       0.75912    0.47269    0.57559   1.00
H2       0.71288    0.47622    0.60089   1.00
H2       0.66700    0.51671    0.39714   1.00
H2       0.62105    0.52732    0.42038   1.00
H2       0.55970    0.51066    0.36892   1.00
H2       0.80753    0.46698    0.63253   1.00
H2       0.76237    0.45336    0.65680   1.00
C2       0.85395    0.50243    0.50113   1.00
C3       0.83403    0.46747    0.50996   1.00
O2       0.85326    0.43711    0.52812   1.00
C3       0.83174    0.53550    0.49027   1.00
H1       0.84615    0.56241    0.48236   1.00
C3a      0.79287    0.46658    0.50876   1.00
H1       0.77798    0.44025    0.51776   1.00
C3b      0.79078    0.53488    0.49032   1.00
C4       0.77100    0.50028    0.49968   1.00
O3       0.72833    0.52456    0.56672   1.00
C5       0.86280    0.40788    0.50074   1.00
H2       0.83609    0.39601    0.48633   1.00
C5       0.88326    0.37529    0.52306   1.00
H2       0.88274    0.41948    0.47780   1.00
H2       0.86068    0.35724    0.53790   1.00
H2       0.90093    0.38918    0.54654   1.00
C5       0.90918    0.34967    0.49680   1.00
H2       0.89176    0.33856    0.47181   1.00
C5       0.92547    0.31466    0.51977   1.00
H2       0.93493    0.36631    0.48561   1.00
C5       0.75983    0.50974    0.62643   1.00
H2       0.73785    0.52450    0.64529   1.00
H2       0.78048    0.53268    0.61622   1.00
C5       0.78200    0.47814    0.64941   1.00
C5       0.79775    0.49533    0.68781   1.00
H2       0.55714    0.46762    0.31515   1.00
H2       0.56553    0.51656    0.29316   1.00
H2       0.60677    0.48159    0.29809   1.00
H2       0.71895    0.71965    0.53734   1.00
H2       0.74449    0.71505    0.48963   1.00
H2       0.69707    0.68981    0.49759   1.00
H2       0.95613    0.30763    0.50898   1.00
H2       0.92656    0.32219    0.55214   1.00
H2       0.90577    0.28826    0.51518   1.00
H2       0.79366    0.52833    0.68767   1.00
H2       0.78116    0.48221    0.71346   1.00
H2       0.83010    0.48818    0.69071   1.00
C5       1.38218    0.48348    0.62570   1.00
H2       1.39745    0.45819    0.61240   1.00
H2       1.36090    0.47094    0.64669   1.00
C5       1.41194    0.50939    0.64717   1.00
C5       1.42123    0.49271    0.68784   1.00
H2       1.40015    0.53947    0.65050   1.00
O3       1.23000    0.56761    0.52109   1.00
C4       1.27100    0.49972    0.49968   1.00
C3c      1.29243    0.48868    0.53282   1.00
H1       1.27725    0.47983    0.55901   1.00
C3d      1.29135    0.51062    0.46567   1.00
C3       1.33354    0.48938    0.53295   1.00
O2       1.35248    0.47368    0.56469   1.00
C3       1.33227    0.51207    0.46594   1.00
H1       1.34657    0.52194    0.43962   1.00
C2       1.35439    0.50140    0.49933   1.00
C5       1.22879    0.59561    0.49089   1.00
H2       1.19838    0.60467    0.48373   1.00
H2       1.24266    0.58418    0.46374   1.00
C5       1.25129    0.63139    0.50478   1.00
H2       1.28137    0.62214    0.51298   1.00
H2       1.23698    0.64277    0.53168   1.00
C5       1.25262    0.66301    0.47290   1.00
H2       1.22268    0.67219    0.46438   1.00
H2       1.26811    0.65212    0.44652   1.00
C5       1.27445    0.69923    0.48807   1.00
C5       1.26105    0.49298    0.40909   1.00
C5       1.36070    0.50334    0.59218   1.00
H2       1.24088    0.47269    0.42441   1.00
H2       1.28712    0.47622    0.39911   1.00
H2       1.33300    0.51671    0.60286   1.00
H2       1.37895    0.52732    0.57962   1.00
H2       1.44030    0.51066    0.63108   1.00
H2       1.19247    0.46698    0.36747   1.00
H2       1.23763    0.45336    0.34320   1.00
C2       1.14605    0.50243    0.49887   1.00
C3       1.16597    0.46747    0.49004   1.00
O2       1.14674    0.43711    0.47188   1.00
C3       1.16826    0.53550    0.50973   1.00
H1       1.15385    0.56241    0.51764   1.00
C3a      1.20713    0.46658    0.49124   1.00
H1       1.22202    0.44025    0.48224   1.00
C3b      1.20922    0.53488    0.50968   1.00
C4       1.22900    0.50028    0.50032   1.00
O3       1.27167    0.52456    0.43328   1.00
C5       1.13720    0.40788    0.49926   1.00
H2       1.16391    0.39601    0.51367   1.00
C5       1.11674    0.37529    0.47694   1.00
H2       1.11726    0.41948    0.52220   1.00
H2       1.13932    0.35724    0.46210   1.00
H2       1.09907    0.38918    0.45346   1.00
C5       1.09082    0.34967    0.50320   1.00
H2       1.10824    0.33856    0.52819   1.00
C5       1.07453    0.31466    0.48023   1.00
H2       1.06507    0.36631    0.51439   1.00
C5       1.24017    0.50974    0.37357   1.00
H2       1.26215    0.52450    0.35471   1.00
H2       1.21952    0.53268    0.38378   1.00
C5       1.21800    0.47814    0.35059   1.00
C5       1.20225    0.49533    0.31219   1.00
H2       1.44286    0.46762    0.68485   1.00
H2       1.43447    0.51656    0.70684   1.00
H2       1.39323    0.48159    0.70191   1.00
H2       1.28105    0.71965    0.46266   1.00
H2       1.25551    0.71505    0.51037   1.00
H2       1.30293    0.68981    0.50241   1.00
H2       1.04387    0.30763    0.49102   1.00
H2       1.07344    0.32219    0.44786   1.00
H2       1.09423    0.28826    0.48482   1.00
H2       1.20634    0.52833    0.31233   1.00
H2       1.21884    0.48221    0.28654   1.00
H2       1.16990    0.48818    0.30929   1.00
C5       0.87430    0.11782    0.48348   1.00
H2       0.88760    0.10255    0.45819   1.00
H2       0.85331    0.13910    0.47094   1.00
C5       0.85283    0.08806    0.50939   1.00
C5       0.81216    0.07877    0.49271   1.00
H2       0.84950    0.09985    0.53947   1.00
O3       0.97891    0.27000    0.56761   1.00
C4       1.00032    0.22900    0.49972   1.00
C3c      0.96718    0.20757    0.48868   1.00
H1       0.94099    0.22275    0.47983   1.00
C3d      1.03433    0.20865    0.51062   1.00
C3       0.96705    0.16646    0.48938   1.00
O2       0.93531    0.14752    0.47368   1.00
C3       1.03406    0.16773    0.51207   1.00
H1       1.06038    0.15343    0.52194   1.00
C2       1.00067    0.14561    0.50140   1.00
C5       1.00911    0.27121    0.59561   1.00
H2       1.01627    0.30162    0.60467   1.00
H2       1.03626    0.25734    0.58418   1.00
C5       0.99522    0.24871    0.63139   1.00
H2       0.98702    0.21863    0.62214   1.00
H2       0.96832    0.26302    0.64277   1.00
C5       1.02710    0.24738    0.66301   1.00
H2       1.03562    0.27732    0.67219   1.00
H2       1.05348    0.23189    0.65212   1.00
C5       1.01193    0.22555    0.69923   1.00
C5       1.09091    0.23895    0.49298   1.00
C5       0.90782    0.13930    0.50334   1.00
H2       1.07559    0.25912    0.47269   1.00
H2       1.10089    0.21288    0.47622   1.00
H2       0.89714    0.16700    0.51671   1.00
H2       0.92038    0.12105    0.52732   1.00
H2       0.86892    0.05970    0.51066   1.00
H2       1.13253    0.30753    0.46698   1.00
H2       1.15680    0.26237    0.45336   1.00
C2       1.00113    0.35395    0.50243   1.00
C3       1.00996    0.33403    0.46747   1.00
O2       1.02812    0.35326    0.43711   1.00
C3       0.99027    0.33174    0.53550   1.00
H1       0.98236    0.34615    0.56241   1.00
C3a      1.00876    0.29287    0.46658   1.00
H1       1.01776    0.27798    0.44025   1.00
C3b      0.99032    0.29078    0.53488   1.00
C4       0.99968    0.27100    0.50028   1.00
O3       1.06672    0.22833    0.52456   1.00
C5       1.00074    0.36280    0.40788   1.00
H2       0.98633    0.33609    0.39601   1.00
C5       1.02306    0.38326    0.37529   1.00
H2       0.97780    0.38274    0.41948   1.00
H2       1.03790    0.36068    0.35724   1.00
H2       1.04654    0.40093    0.38918   1.00
C5       0.99680    0.40918    0.34967   1.00
H2       0.97181    0.39176    0.33856   1.00
C5       1.01977    0.42547    0.31466   1.00
H2       0.98561    0.43493    0.36631   1.00
C5       1.12643    0.25983    0.50974   1.00
H2       1.14529    0.23785    0.52450   1.00
H2       1.11622    0.28048    0.53268   1.00
C5       1.14941    0.28200    0.47814   1.00
C5       1.18781    0.29775    0.49533   1.00
H2       0.81515    0.05714    0.46762   1.00
H2       0.79316    0.06553    0.51656   1.00
H2       0.79809    0.10677    0.48159   1.00
H2       1.03734    0.21895    0.71965   1.00
H2       0.98963    0.24449    0.71505   1.00
H2       0.99759    0.19707    0.68981   1.00
H2       1.00898    0.45613    0.30763   1.00
H2       1.05214    0.42656    0.32219   1.00
H2       1.01518    0.40577    0.28826   1.00
H2       1.18767    0.29366    0.52833   1.00
H2       1.21346    0.28116    0.48221   1.00
H2       1.19071    0.33010    0.48818   1.00
C5       0.98348    0.37430    0.11782   1.00
H2       0.95819    0.38760    0.10255   1.00
H2       0.97094    0.35331    0.13910   1.00
C5       1.00939    0.35283    0.08806   1.00
C5       0.99271    0.31216    0.07877   1.00
H2       1.03947    0.34950    0.09985   1.00
O3       1.06761    0.47891    0.27000   1.00
C4       0.99972    0.50032    0.22900   1.00
C3c      0.98868    0.46718    0.20757   1.00
H1       0.97983    0.44099    0.22275   1.00
C3d      1.01062    0.53433    0.20865   1.00
C3       0.98938    0.46705    0.16646   1.00
O2       0.97368    0.43531    0.14752   1.00
C3       1.01207    0.53406    0.16773   1.00
H1       1.02194    0.56038    0.15343   1.00
C2       1.00140    0.50067    0.14561   1.00
C5       1.09561    0.50911    0.27121   1.00
H2       1.10467    0.51627    0.30162   1.00
H2       1.08418    0.53626    0.25734   1.00
C5       1.13139    0.49522    0.24871   1.00
H2       1.12214    0.48702    0.21863   1.00
H2       1.14277    0.46832    0.26302   1.00
C5       1.16301    0.52710    0.24738   1.00
H2       1.17219    0.53562    0.27732   1.00
H2       1.15212    0.55348    0.23189   1.00
C5       1.19923    0.51193    0.22555   1.00
C5       0.99298    0.59091    0.23895   1.00
C5       1.00334    0.40782    0.13930   1.00
H2       0.97269    0.57559    0.25912   1.00
H2       0.97622    0.60089    0.21288   1.00
H2       1.01671    0.39714    0.16700   1.00
H2       1.02732    0.42038    0.12105   1.00
H2       1.01066    0.36892    0.05970   1.00
H2       0.96698    0.63253    0.30753   1.00
H2       0.95336    0.65680    0.26237   1.00
C2       1.00243    0.50113    0.35395   1.00
C3       0.96747    0.50996    0.33403   1.00
O2       0.93711    0.52812    0.35326   1.00
C3       1.03550    0.49027    0.33174   1.00
H1       1.06241    0.48236    0.34615   1.00
C3a      0.96658    0.50876    0.29287   1.00
H1       0.94025    0.51776    0.27798   1.00
C3b      1.03488    0.49032    0.29078   1.00
C4       1.00028    0.49968    0.27100   1.00
O3       1.02456    0.56672    0.22833   1.00
C5       0.90788    0.50074    0.36280   1.00
H2       0.89601    0.48633    0.33609   1.00
C5       0.87529    0.52306    0.38326   1.00
H2       0.91948    0.47780    0.38274   1.00
H2       0.85724    0.53790    0.36068   1.00
H2       0.88918    0.54654    0.40093   1.00
C5       0.84967    0.49680    0.40918   1.00
H2       0.83856    0.47181    0.39176   1.00
C5       0.81466    0.51977    0.42547   1.00
H2       0.86631    0.48561    0.43493   1.00
C5       1.00974    0.62643    0.25983   1.00
H2       1.02450    0.64529    0.23785   1.00
H2       1.03268    0.61622    0.28048   1.00
C5       0.97814    0.64941    0.28200   1.00
C5       0.99533    0.68781    0.29775   1.00
H2       0.96762    0.31515    0.05714   1.00
H2       1.01656    0.29316    0.06553   1.00
H2       0.98159    0.29809    0.10677   1.00
H2       1.21965    0.53734    0.21895   1.00
H2       1.21505    0.48963    0.24449   1.00
H2       1.18981    0.49759    0.19707   1.00
H2       0.80763    0.50898    0.45613   1.00
H2       0.82219    0.55214    0.42656   1.00
H2       0.78826    0.51518    0.40577   1.00
H2       1.02833    0.68767    0.29366   1.00
H2       0.98221    0.71346    0.28116   1.00
H2       0.98818    0.69071    0.33010   1.00
