data_IRMOF10_SG202_interpen_Ligand1lp_label_f.

_audit_creation_method             'generated by an auxiliary program of Tobunporous'

_symmetry_space_group_name_H-M     'P 1'
_symmetry_Int_Tables_number        1
_symmetry_cell_setting             triclinic

_cell_length_a                    34.2800
_cell_length_b                    34.2800
_cell_length_c                    34.2800
_cell_angle_alpha                 90.0000
_cell_angle_beta                  90.0000
_cell_angle_gamma                 90.0000

loop_
_atom_site_label
_atom_site_fract_x
_atom_site_fract_y
_atom_site_fract_z
_atom_site_occupancy
O1       0.75000    0.75000    0.75000   1.00
Zn1      0.71720    0.78280    0.78280   1.00
Zn1      0.78280    0.71720    0.78280   1.00
Zn1      0.78280    0.78280    0.71720   1.00
Zn1      0.71720    0.71720    0.71720   1.00
O2       0.72650    0.77350    0.83820   1.00
O2       0.72650    0.83820    0.77350   1.00
O2       0.66180    0.77350    0.77350   1.00
O2       0.77350    0.72650    0.83820   1.00
O2       0.83820    0.72650    0.77350   1.00
O2       0.77350    0.66180    0.77350   1.00
O2       0.77350    0.83820    0.72650   1.00
O2       0.83820    0.77350    0.72650   1.00
O2       0.77350    0.77350    0.66180   1.00
O2       0.66180    0.72650    0.72650   1.00
O2       0.72650    0.66180    0.72650   1.00
O2       0.72650    0.72650    0.66180   1.00
C1       0.75000    0.75000    0.85520   1.00
C1       0.75000    0.85520    0.75000   1.00
C1       0.64480    0.75000    0.75000   1.00
C1       0.85520    0.75000    0.75000   1.00
C1       0.75000    0.64480    0.75000   1.00
C1       0.75000    0.75000    0.64480   1.00
O1       0.25000    0.25000    0.75000   1.00
Zn1      0.21720    0.28280    0.78280   1.00
Zn1      0.28280    0.21720    0.78280   1.00
Zn1      0.28280    0.28280    0.71720   1.00
Zn1      0.21720    0.21720    0.71720   1.00
O2       0.22650    0.27350    0.83820   1.00
O2       0.22650    0.33820    0.77350   1.00
O2       0.16180    0.27350    0.77350   1.00
O2       0.27350    0.22650    0.83820   1.00
O2       0.33820    0.22650    0.77350   1.00
O2       0.27350    0.16180    0.77350   1.00
O2       0.27350    0.33820    0.72650   1.00
O2       0.33820    0.27350    0.72650   1.00
O2       0.27350    0.27350    0.66180   1.00
O2       0.16180    0.22650    0.72650   1.00
O2       0.22650    0.16180    0.72650   1.00
O2       0.22650    0.22650    0.66180   1.00
C1       0.25000    0.25000    0.85520   1.00
C1       0.25000    0.35520    0.75000   1.00
C1       0.14480    0.25000    0.75000   1.00
C1       0.35520    0.25000    0.75000   1.00
C1       0.25000    0.14480    0.75000   1.00
C1       0.25000    0.25000    0.64480   1.00
O1       0.25000    0.75000    0.25000   1.00
Zn1      0.21720    0.78280    0.28280   1.00
Zn1      0.28280    0.71720    0.28280   1.00
Zn1      0.28280    0.78280    0.21720   1.00
Zn1      0.21720    0.71720    0.21720   1.00
O2       0.22650    0.77350    0.33820   1.00
O2       0.22650    0.83820    0.27350   1.00
O2       0.16180    0.77350    0.27350   1.00
O2       0.27350    0.72650    0.33820   1.00
O2       0.33820    0.72650    0.27350   1.00
O2       0.27350    0.66180    0.27350   1.00
O2       0.27350    0.83820    0.22650   1.00
O2       0.33820    0.77350    0.22650   1.00
O2       0.27350    0.77350    0.16180   1.00
O2       0.16180    0.72650    0.22650   1.00
O2       0.22650    0.66180    0.22650   1.00
O2       0.22650    0.72650    0.16180   1.00
C1       0.25000    0.75000    0.35520   1.00
C1       0.25000    0.85520    0.25000   1.00
C1       0.14480    0.75000    0.25000   1.00
C1       0.35520    0.75000    0.25000   1.00
C1       0.25000    0.64480    0.25000   1.00
C1       0.25000    0.75000    0.14480   1.00
O1       0.75000    0.25000    0.25000   1.00
Zn1      0.71720    0.28280    0.28280   1.00
Zn1      0.78280    0.21720    0.28280   1.00
Zn1      0.78280    0.28280    0.21720   1.00
Zn1      0.71720    0.21720    0.21720   1.00
O2       0.72650    0.27350    0.33820   1.00
O2       0.72650    0.33820    0.27350   1.00
O2       0.66180    0.27350    0.27350   1.00
O2       0.77350    0.22650    0.33820   1.00
O2       0.83820    0.22650    0.27350   1.00
O2       0.77350    0.16180    0.27350   1.00
O2       0.77350    0.33820    0.22650   1.00
O2       0.83820    0.27350    0.22650   1.00
O2       0.77350    0.27350    0.16180   1.00
O2       0.66180    0.22650    0.22650   1.00
O2       0.72650    0.16180    0.22650   1.00
O2       0.72650    0.22650    0.16180   1.00
C1       0.75000    0.25000    0.35520   1.00
C1       0.75000    0.35520    0.25000   1.00
C1       0.64480    0.25000    0.25000   1.00
C1       0.85520    0.25000    0.25000   1.00
C1       0.75000    0.14480    0.25000   1.00
C1       0.75000    0.25000    0.14480   1.00
O1       0.25000    0.25000    0.25000   1.00
Zn1      0.28280    0.21720    0.21720   1.00
Zn1      0.21720    0.28280    0.21720   1.00
Zn1      0.21720    0.21720    0.28280   1.00
Zn1      0.28280    0.28280    0.28280   1.00
O2       0.27350    0.22650    0.16180   1.00
O2       0.27350    0.16180    0.22650   1.00
O2       0.33820    0.22650    0.22650   1.00
O2       0.22650    0.27350    0.16180   1.00
O2       0.16180    0.27350    0.22650   1.00
O2       0.22650    0.33820    0.22650   1.00
O2       0.22650    0.16180    0.27350   1.00
O2       0.16180    0.22650    0.27350   1.00
O2       0.22650    0.22650    0.33820   1.00
O2       0.33820    0.27350    0.27350   1.00
O2       0.27350    0.33820    0.27350   1.00
O2       0.27350    0.27350    0.33820   1.00
C1       0.25000    0.25000    0.14480   1.00
C1       0.25000    0.14480    0.25000   1.00
C1       0.35520    0.25000    0.25000   1.00
C1       0.14480    0.25000    0.25000   1.00
C1       0.25000    0.35520    0.25000   1.00
C1       0.25000    0.25000    0.35520   1.00
O1       0.75000    0.75000    0.25000   1.00
Zn1      0.78280    0.71720    0.21720   1.00
Zn1      0.71720    0.78280    0.21720   1.00
Zn1      0.71720    0.71720    0.28280   1.00
Zn1      0.78280    0.78280    0.28280   1.00
O2       0.77350    0.72650    0.16180   1.00
O2       0.77350    0.66180    0.22650   1.00
O2       0.83820    0.72650    0.22650   1.00
O2       0.72650    0.77350    0.16180   1.00
O2       0.66180    0.77350    0.22650   1.00
O2       0.72650    0.83820    0.22650   1.00
O2       0.72650    0.66180    0.27350   1.00
O2       0.66180    0.72650    0.27350   1.00
O2       0.72650    0.72650    0.33820   1.00
O2       0.83820    0.77350    0.27350   1.00
O2       0.77350    0.83820    0.27350   1.00
O2       0.77350    0.77350    0.33820   1.00
C1       0.75000    0.75000    0.14480   1.00
C1       0.75000    0.64480    0.25000   1.00
C1       0.85520    0.75000    0.25000   1.00
C1       0.64480    0.75000    0.25000   1.00
C1       0.75000    0.85520    0.25000   1.00
C1       0.75000    0.75000    0.35520   1.00
O1       0.75000    0.25000    0.75000   1.00
Zn1      0.78280    0.21720    0.71720   1.00
Zn1      0.71720    0.28280    0.71720   1.00
Zn1      0.71720    0.21720    0.78280   1.00
Zn1      0.78280    0.28280    0.78280   1.00
O2       0.77350    0.22650    0.66180   1.00
O2       0.77350    0.16180    0.72650   1.00
O2       0.83820    0.22650    0.72650   1.00
O2       0.72650    0.27350    0.66180   1.00
O2       0.66180    0.27350    0.72650   1.00
O2       0.72650    0.33820    0.72650   1.00
O2       0.72650    0.16180    0.77350   1.00
O2       0.66180    0.22650    0.77350   1.00
O2       0.72650    0.22650    0.83820   1.00
O2       0.83820    0.27350    0.77350   1.00
O2       0.77350    0.33820    0.77350   1.00
O2       0.77350    0.27350    0.83820   1.00
C1       0.75000    0.25000    0.64480   1.00
C1       0.75000    0.14480    0.75000   1.00
C1       0.85520    0.25000    0.75000   1.00
C1       0.64480    0.25000    0.75000   1.00
C1       0.75000    0.35520    0.75000   1.00
C1       0.75000    0.25000    0.85520   1.00
O1       0.25000    0.75000    0.75000   1.00
Zn1      0.28280    0.71720    0.71720   1.00
Zn1      0.21720    0.78280    0.71720   1.00
Zn1      0.21720    0.71720    0.78280   1.00
Zn1      0.28280    0.78280    0.78280   1.00
O2       0.27350    0.72650    0.66180   1.00
O2       0.27350    0.66180    0.72650   1.00
O2       0.33820    0.72650    0.72650   1.00
O2       0.22650    0.77350    0.66180   1.00
O2       0.16180    0.77350    0.72650   1.00
O2       0.22650    0.83820    0.72650   1.00
O2       0.22650    0.66180    0.77350   1.00
O2       0.16180    0.72650    0.77350   1.00
O2       0.22650    0.72650    0.83820   1.00
O2       0.33820    0.77350    0.77350   1.00
O2       0.27350    0.83820    0.77350   1.00
O2       0.27350    0.77350    0.83820   1.00
C1       0.25000    0.75000    0.64480   1.00
C1       0.25000    0.64480    0.75000   1.00
C1       0.35520    0.75000    0.75000   1.00
C1       0.14480    0.75000    0.75000   1.00
C1       0.25000    0.85520    0.75000   1.00
C1       0.25000    0.75000    0.85520   1.00
O1       1.00000    1.00000    1.00000   1.00
Zn1      0.96720    1.03280    1.03280   1.00
Zn1      1.03280    0.96720    1.03280   1.00
Zn1      1.03280    1.03280    0.96720   1.00
Zn1      0.96720    0.96720    0.96720   1.00
O2       0.97650    1.02350    1.08820   1.00
O2       0.97650    1.08820    1.02350   1.00
O2       0.91180    1.02350    1.02350   1.00
O2       1.02350    0.97650    1.08820   1.00
O2       1.08820    0.97650    1.02350   1.00
O2       1.02350    0.91180    1.02350   1.00
O2       1.02350    1.08820    0.97650   1.00
O2       1.08820    1.02350    0.97650   1.00
O2       1.02350    1.02350    0.91180   1.00
O2       0.91180    0.97650    0.97650   1.00
O2       0.97650    0.91180    0.97650   1.00
O2       0.97650    0.97650    0.91180   1.00
C1       1.00000    1.00000    1.10520   1.00
C1       1.00000    1.10520    1.00000   1.00
C1       0.89480    1.00000    1.00000   1.00
C1       1.10520    1.00000    1.00000   1.00
C1       1.00000    0.89480    1.00000   1.00
C1       1.00000    1.00000    0.89480   1.00
O1       0.50000    0.50000    1.00000   1.00
Zn1      0.46720    0.53280    1.03280   1.00
Zn1      0.53280    0.46720    1.03280   1.00
Zn1      0.53280    0.53280    0.96720   1.00
Zn1      0.46720    0.46720    0.96720   1.00
O2       0.47650    0.52350    1.08820   1.00
O2       0.47650    0.58820    1.02350   1.00
O2       0.41180    0.52350    1.02350   1.00
O2       0.52350    0.47650    1.08820   1.00
O2       0.58820    0.47650    1.02350   1.00
O2       0.52350    0.41180    1.02350   1.00
O2       0.52350    0.58820    0.97650   1.00
O2       0.58820    0.52350    0.97650   1.00
O2       0.52350    0.52350    0.91180   1.00
O2       0.41180    0.47650    0.97650   1.00
O2       0.47650    0.41180    0.97650   1.00
O2       0.47650    0.47650    0.91180   1.00
C1       0.50000    0.50000    1.10520   1.00
C1       0.50000    0.60520    1.00000   1.00
C1       0.39480    0.50000    1.00000   1.00
C1       0.60520    0.50000    1.00000   1.00
C1       0.50000    0.39480    1.00000   1.00
C1       0.50000    0.50000    0.89480   1.00
O1       0.50000    1.00000    0.50000   1.00
Zn1      0.46720    1.03280    0.53280   1.00
Zn1      0.53280    0.96720    0.53280   1.00
Zn1      0.53280    1.03280    0.46720   1.00
Zn1      0.46720    0.96720    0.46720   1.00
O2       0.47650    1.02350    0.58820   1.00
O2       0.47650    1.08820    0.52350   1.00
O2       0.41180    1.02350    0.52350   1.00
O2       0.52350    0.97650    0.58820   1.00
O2       0.58820    0.97650    0.52350   1.00
O2       0.52350    0.91180    0.52350   1.00
O2       0.52350    1.08820    0.47650   1.00
O2       0.58820    1.02350    0.47650   1.00
O2       0.52350    1.02350    0.41180   1.00
O2       0.41180    0.97650    0.47650   1.00
O2       0.47650    0.91180    0.47650   1.00
O2       0.47650    0.97650    0.41180   1.00
C1       0.50000    1.00000    0.60520   1.00
C1       0.50000    1.10520    0.50000   1.00
C1       0.39480    1.00000    0.50000   1.00
C1       0.60520    1.00000    0.50000   1.00
C1       0.50000    0.89480    0.50000   1.00
C1       0.50000    1.00000    0.39480   1.00
O1       1.00000    0.50000    0.50000   1.00
Zn1      0.96720    0.53280    0.53280   1.00
Zn1      1.03280    0.46720    0.53280   1.00
Zn1      1.03280    0.53280    0.46720   1.00
Zn1      0.96720    0.46720    0.46720   1.00
O2       0.97650    0.52350    0.58820   1.00
O2       0.97650    0.58820    0.52350   1.00
O2       0.91180    0.52350    0.52350   1.00
O2       1.02350    0.47650    0.58820   1.00
O2       1.08820    0.47650    0.52350   1.00
O2       1.02350    0.41180    0.52350   1.00
O2       1.02350    0.58820    0.47650   1.00
O2       1.08820    0.52350    0.47650   1.00
O2       1.02350    0.52350    0.41180   1.00
O2       0.91180    0.47650    0.47650   1.00
O2       0.97650    0.41180    0.47650   1.00
O2       0.97650    0.47650    0.41180   1.00
C1       1.00000    0.50000    0.60520   1.00
C1       1.00000    0.60520    0.50000   1.00
C1       0.89480    0.50000    0.50000   1.00
C1       1.10520    0.50000    0.50000   1.00
C1       1.00000    0.39480    0.50000   1.00
C1       1.00000    0.50000    0.39480   1.00
O1       0.50000    0.50000    0.50000   1.00
Zn1      0.53280    0.46720    0.46720   1.00
Zn1      0.46720    0.53280    0.46720   1.00
Zn1      0.46720    0.46720    0.53280   1.00
Zn1      0.53280    0.53280    0.53280   1.00
O2       0.52350    0.47650    0.41180   1.00
O2       0.52350    0.41180    0.47650   1.00
O2       0.58820    0.47650    0.47650   1.00
O2       0.47650    0.52350    0.41180   1.00
O2       0.41180    0.52350    0.47650   1.00
O2       0.47650    0.58820    0.47650   1.00
O2       0.47650    0.41180    0.52350   1.00
O2       0.41180    0.47650    0.52350   1.00
O2       0.47650    0.47650    0.58820   1.00
O2       0.58820    0.52350    0.52350   1.00
O2       0.52350    0.58820    0.52350   1.00
O2       0.52350    0.52350    0.58820   1.00
C1       0.50000    0.50000    0.39480   1.00
C1       0.50000    0.39480    0.50000   1.00
C1       0.60520    0.50000    0.50000   1.00
C1       0.39480    0.50000    0.50000   1.00
C1       0.50000    0.60520    0.50000   1.00
C1       0.50000    0.50000    0.60520   1.00
O1       1.00000    1.00000    0.50000   1.00
Zn1      1.03280    0.96720    0.46720   1.00
Zn1      0.96720    1.03280    0.46720   1.00
Zn1      0.96720    0.96720    0.53280   1.00
Zn1      1.03280    1.03280    0.53280   1.00
O2       1.02350    0.97650    0.41180   1.00
O2       1.02350    0.91180    0.47650   1.00
O2       1.08820    0.97650    0.47650   1.00
O2       0.97650    1.02350    0.41180   1.00
O2       0.91180    1.02350    0.47650   1.00
O2       0.97650    1.08820    0.47650   1.00
O2       0.97650    0.91180    0.52350   1.00
O2       0.91180    0.97650    0.52350   1.00
O2       0.97650    0.97650    0.58820   1.00
O2       1.08820    1.02350    0.52350   1.00
O2       1.02350    1.08820    0.52350   1.00
O2       1.02350    1.02350    0.58820   1.00
C1       1.00000    1.00000    0.39480   1.00
C1       1.00000    0.89480    0.50000   1.00
C1       1.10520    1.00000    0.50000   1.00
C1       0.89480    1.00000    0.50000   1.00
C1       1.00000    1.10520    0.50000   1.00
C1       1.00000    1.00000    0.60520   1.00
O1       1.00000    0.50000    1.00000   1.00
Zn1      1.03280    0.46720    0.96720   1.00
Zn1      0.96720    0.53280    0.96720   1.00
Zn1      0.96720    0.46720    1.03280   1.00
Zn1      1.03280    0.53280    1.03280   1.00
O2       1.02350    0.47650    0.91180   1.00
O2       1.02350    0.41180    0.97650   1.00
O2       1.08820    0.47650    0.97650   1.00
O2       0.97650    0.52350    0.91180   1.00
O2       0.91180    0.52350    0.97650   1.00
O2       0.97650    0.58820    0.97650   1.00
O2       0.97650    0.41180    1.02350   1.00
O2       0.91180    0.47650    1.02350   1.00
O2       0.97650    0.47650    1.08820   1.00
O2       1.08820    0.52350    1.02350   1.00
O2       1.02350    0.58820    1.02350   1.00
O2       1.02350    0.52350    1.08820   1.00
C1       1.00000    0.50000    0.89480   1.00
C1       1.00000    0.39480    1.00000   1.00
C1       1.10520    0.50000    1.00000   1.00
C1       0.89480    0.50000    1.00000   1.00
C1       1.00000    0.60520    1.00000   1.00
C1       1.00000    0.50000    1.10520   1.00
O1       0.50000    1.00000    1.00000   1.00
Zn1      0.53280    0.96720    0.96720   1.00
Zn1      0.46720    1.03280    0.96720   1.00
Zn1      0.46720    0.96720    1.03280   1.00
Zn1      0.53280    1.03280    1.03280   1.00
O2       0.52350    0.97650    0.91180   1.00
O2       0.52350    0.91180    0.97650   1.00
O2       0.58820    0.97650    0.97650   1.00
O2       0.47650    1.02350    0.91180   1.00
O2       0.41180    1.02350    0.97650   1.00
O2       0.47650    1.08820    0.97650   1.00
O2       0.47650    0.91180    1.02350   1.00
O2       0.41180    0.97650    1.02350   1.00
O2       0.47650    0.97650    1.08820   1.00
O2       0.58820    1.02350    1.02350   1.00
O2       0.52350    1.08820    1.02350   1.00
O2       0.52350    1.02350    1.08820   1.00
C1       0.50000    1.00000    0.89480   1.00
C1       0.50000    0.89480    1.00000   1.00
C1       0.60520    1.00000    1.00000   1.00
C1       0.39480    1.00000    1.00000   1.00
C1       0.50000    1.10520    1.00000   1.00
C1       0.50000    1.00000    1.10520   1.00
C5       0.82721    0.85056    1.13218   1.00
H2       0.79993    0.85904    1.14745   1.00
H2       0.83319    0.87427    1.11090   1.00
C5       0.86072    0.84741    1.16194   1.00
C5       0.87768    0.88796    1.17123   1.00
H2       0.88434    0.82849    1.15015   1.00
O3       0.81271    0.71710    0.98000   1.00
C4       0.74958    0.74997    1.02100   1.00
C3c      0.76520    0.78121    1.04243   1.00
H1       0.77747    0.80599    1.02725   1.00
C3d      0.73323    0.71821    1.04135   1.00
C3       0.76579    0.78081    1.08354   1.00
O2       0.77714    0.81435    1.10248   1.00
C3       0.73445    0.71739    1.08227   1.00
H1       0.72281    0.69179    1.09657   1.00
C2       0.75052    0.74854    1.10439   1.00
C5       0.81116    0.67594    0.97879   1.00
H2       0.81251    0.66448    0.94838   1.00
H2       0.78387    0.66483    0.99266   1.00
C5       0.84628    0.66047    1.00129   1.00
H2       0.84553    0.67280    1.03137   1.00
H2       0.87335    0.67144    0.98698   1.00
C5       0.84609    0.61556    1.00262   1.00
H2       0.84656    0.60305    0.97268   1.00
H2       0.81974    0.60461    1.01811   1.00
C5       0.88243    0.60067    1.02445   1.00
C5       0.68075    0.69069    1.01105   1.00
C5       0.81755    0.81281    1.11070   1.00
H2       0.67724    0.71587    0.99088   1.00
H2       0.66184    0.69549    1.03712   1.00
H2       0.83456    0.81091    1.08300   1.00
H2       0.82562    0.78697    1.12895   1.00
H2       0.85024    0.83514    1.19030   1.00
H2       0.63293    0.67965    0.94247   1.00
H2       0.60614    0.67212    0.98763   1.00
C2       0.75091    0.74748    0.89605   1.00
C3       0.71995    0.76596    0.91597   1.00
O2       0.68565    0.77459    0.89674   1.00
C3       0.78198    0.73177    0.91826   1.00
H1       0.80660    0.71834    0.90385   1.00
C3a      0.72017    0.76744    0.95713   1.00
H1       0.69520    0.77970    0.97202   1.00
C3b      0.78151    0.73218    0.95922   1.00
C4       0.75042    0.75003    0.97900   1.00
O3       0.72018    0.68546    1.02167   1.00
C5       0.68435    0.81462    0.88720   1.00
H2       0.68615    0.83321    0.91391   1.00
C5       0.64552    0.82189    0.86674   1.00
H2       0.70877    0.82264    0.86726   1.00
H2       0.62226    0.82416    0.88932   1.00
H2       0.63873    0.79546    0.84907   1.00
C5       0.64597    0.85857    0.84082   1.00
H2       0.65579    0.88410    0.85824   1.00
C5       0.60498    0.86709    0.82453   1.00
H2       0.66565    0.85472    0.81507   1.00
C5       0.66748    0.65372    0.99017   1.00
H2       0.66457    0.62995    1.01215   1.00
H2       0.69092    0.64471    0.96952   1.00
C5       0.62888    0.65982    0.96800   1.00
C5       0.61389    0.62052    0.95225   1.00
H2       0.85783    0.90359    1.19286   1.00
H2       0.90799    0.88453    1.18447   1.00
H2       0.87977    0.90578    1.14323   1.00
H2       0.87889    0.56827    1.03105   1.00
H2       0.90938    0.60525    1.00551   1.00
H2       0.88591    0.61748    1.05293   1.00
H2       0.60763    0.87969    0.79387   1.00
H2       0.58741    0.83888    0.82344   1.00
H2       0.58956    0.88900    0.84423   1.00
H2       0.63732    0.59727    0.95634   1.00
H2       0.58646    0.61166    0.96884   1.00
H2       0.60678    0.62352    0.91990   1.00
C5       0.85056    1.13218    0.82721   1.00
H2       0.85904    1.14745    0.79993   1.00
H2       0.87427    1.11090    0.83319   1.00
C5       0.84741    1.16194    0.86072   1.00
C5       0.88796    1.17123    0.87768   1.00
H2       0.82849    1.15015    0.88434   1.00
O3       0.71710    0.98000    0.81271   1.00
C4       0.74997    1.02100    0.74958   1.00
C3c      0.78121    1.04243    0.76520   1.00
H1       0.80599    1.02725    0.77747   1.00
C3d      0.71821    1.04135    0.73323   1.00
C3       0.78081    1.08354    0.76579   1.00
O2       0.81435    1.10248    0.77714   1.00
C3       0.71739    1.08227    0.73445   1.00
H1       0.69179    1.09657    0.72281   1.00
C2       0.74854    1.10439    0.75052   1.00
C5       0.67594    0.97879    0.81116   1.00
H2       0.66448    0.94838    0.81251   1.00
H2       0.66483    0.99266    0.78387   1.00
C5       0.66047    1.00129    0.84628   1.00
H2       0.67280    1.03137    0.84553   1.00
H2       0.67144    0.98698    0.87335   1.00
C5       0.61556    1.00262    0.84609   1.00
H2       0.60305    0.97268    0.84656   1.00
H2       0.60461    1.01811    0.81974   1.00
C5       0.60067    1.02445    0.88243   1.00
C5       0.69069    1.01105    0.68075   1.00
C5       0.81281    1.11070    0.81755   1.00
H2       0.71587    0.99088    0.67724   1.00
H2       0.69549    1.03712    0.66184   1.00
H2       0.81091    1.08300    0.83456   1.00
H2       0.78697    1.12895    0.82562   1.00
H2       0.83514    1.19030    0.85024   1.00
H2       0.67965    0.94247    0.63293   1.00
H2       0.67212    0.98763    0.60614   1.00
C2       0.74748    0.89605    0.75091   1.00
C3       0.76596    0.91597    0.71995   1.00
O2       0.77459    0.89674    0.68565   1.00
C3       0.73177    0.91826    0.78198   1.00
H1       0.71834    0.90385    0.80660   1.00
C3a      0.76744    0.95713    0.72017   1.00
H1       0.77970    0.97202    0.69520   1.00
C3b      0.73218    0.95922    0.78151   1.00
C4       0.75003    0.97900    0.75042   1.00
O3       0.68546    1.02167    0.72018   1.00
C5       0.81462    0.88720    0.68435   1.00
H2       0.83321    0.91391    0.68615   1.00
C5       0.82189    0.86674    0.64552   1.00
H2       0.82264    0.86726    0.70877   1.00
H2       0.82416    0.88932    0.62226   1.00
H2       0.79546    0.84907    0.63873   1.00
C5       0.85857    0.84082    0.64597   1.00
H2       0.88410    0.85824    0.65579   1.00
C5       0.86709    0.82453    0.60498   1.00
H2       0.85472    0.81507    0.66565   1.00
C5       0.65372    0.99017    0.66748   1.00
H2       0.62995    1.01215    0.66457   1.00
H2       0.64471    0.96952    0.69092   1.00
C5       0.65982    0.96800    0.62888   1.00
C5       0.62052    0.95225    0.61389   1.00
H2       0.90359    1.19286    0.85783   1.00
H2       0.88453    1.18447    0.90799   1.00
H2       0.90578    1.14323    0.87977   1.00
H2       0.56827    1.03105    0.87889   1.00
H2       0.60525    1.00551    0.90938   1.00
H2       0.61748    1.05293    0.88591   1.00
H2       0.87969    0.79387    0.60763   1.00
H2       0.83888    0.82344    0.58741   1.00
H2       0.88900    0.84423    0.58956   1.00
H2       0.59727    0.95634    0.63732   1.00
H2       0.61166    0.96884    0.58646   1.00
H2       0.62352    0.91990    0.60678   1.00
C5       0.36782    0.82721    0.64944   1.00
H2       0.35255    0.79993    0.64096   1.00
H2       0.38910    0.83319    0.62573   1.00
C5       0.33806    0.86072    0.65259   1.00
C5       0.32877    0.87768    0.61204   1.00
H2       0.34985    0.88434    0.67151   1.00
O3       0.52000    0.81271    0.78290   1.00
C4       0.47900    0.74958    0.75003   1.00
C3c      0.45757    0.76520    0.71879   1.00
H1       0.47275    0.77747    0.69401   1.00
C3d      0.45865    0.73323    0.78179   1.00
C3       0.41646    0.76579    0.71919   1.00
O2       0.39752    0.77714    0.68565   1.00
C3       0.41773    0.73445    0.78261   1.00
H1       0.40343    0.72281    0.80821   1.00
C2       0.39561    0.75052    0.75146   1.00
C5       0.52121    0.81116    0.82406   1.00
H2       0.55162    0.81251    0.83552   1.00
H2       0.50734    0.78387    0.83517   1.00
C5       0.49871    0.84628    0.83953   1.00
H2       0.46863    0.84553    0.82720   1.00
H2       0.51302    0.87335    0.82856   1.00
C5       0.49738    0.84609    0.88444   1.00
H2       0.52732    0.84656    0.89695   1.00
H2       0.48189    0.81974    0.89539   1.00
C5       0.47555    0.88243    0.89933   1.00
C5       0.48895    0.68075    0.80931   1.00
C5       0.38930    0.81755    0.68719   1.00
H2       0.50912    0.67724    0.78413   1.00
H2       0.46288    0.66184    0.80451   1.00
H2       0.41700    0.83456    0.68909   1.00
H2       0.37105    0.82562    0.71303   1.00
H2       0.30970    0.85024    0.66486   1.00
H2       0.55753    0.63293    0.82035   1.00
H2       0.51237    0.60614    0.82788   1.00
C2       0.60395    0.75091    0.75252   1.00
C3       0.58403    0.71995    0.73404   1.00
O2       0.60326    0.68565    0.72541   1.00
C3       0.58174    0.78198    0.76823   1.00
H1       0.59615    0.80660    0.78166   1.00
C3a      0.54287    0.72017    0.73256   1.00
H1       0.52798    0.69520    0.72030   1.00
C3b      0.54078    0.78151    0.76782   1.00
C4       0.52100    0.75042    0.74997   1.00
O3       0.47833    0.72018    0.81454   1.00
C5       0.61280    0.68435    0.68538   1.00
H2       0.58609    0.68615    0.66679   1.00
C5       0.63326    0.64552    0.67811   1.00
H2       0.63274    0.70877    0.67736   1.00
H2       0.61068    0.62226    0.67584   1.00
H2       0.65093    0.63873    0.70454   1.00
C5       0.65918    0.64597    0.64143   1.00
H2       0.64176    0.65579    0.61590   1.00
C5       0.67547    0.60498    0.63291   1.00
H2       0.68493    0.66565    0.64528   1.00
C5       0.50983    0.66748    0.84628   1.00
H2       0.48785    0.66457    0.87005   1.00
H2       0.53048    0.69092    0.85529   1.00
C5       0.53200    0.62888    0.84018   1.00
C5       0.54775    0.61389    0.87948   1.00
H2       0.30714    0.85783    0.59641   1.00
H2       0.31553    0.90799    0.61547   1.00
H2       0.35677    0.87977    0.59422   1.00
H2       0.46895    0.87889    0.93173   1.00
H2       0.49449    0.90938    0.89475   1.00
H2       0.44707    0.88591    0.88252   1.00
H2       0.70613    0.60763    0.62031   1.00
H2       0.67656    0.58741    0.66112   1.00
H2       0.65577    0.58956    0.61100   1.00
H2       0.54366    0.63732    0.90273   1.00
H2       0.53116    0.58646    0.88834   1.00
H2       0.58010    0.60678    0.87648   1.00
C5       1.13218    0.82721    0.85056   1.00
H2       1.14745    0.79993    0.85904   1.00
H2       1.11090    0.83319    0.87427   1.00
C5       1.16194    0.86072    0.84741   1.00
C5       1.17123    0.87768    0.88796   1.00
H2       1.15015    0.88434    0.82849   1.00
O3       0.98000    0.81271    0.71710   1.00
C4       1.02100    0.74958    0.74997   1.00
C3c      1.04243    0.76520    0.78121   1.00
H1       1.02725    0.77747    0.80599   1.00
C3d      1.04135    0.73323    0.71821   1.00
C3       1.08354    0.76579    0.78081   1.00
O2       1.10248    0.77714    0.81435   1.00
C3       1.08227    0.73445    0.71739   1.00
H1       1.09657    0.72281    0.69179   1.00
C2       1.10439    0.75052    0.74854   1.00
C5       0.97879    0.81116    0.67594   1.00
H2       0.94838    0.81251    0.66448   1.00
H2       0.99266    0.78387    0.66483   1.00
C5       1.00129    0.84628    0.66047   1.00
H2       1.03137    0.84553    0.67280   1.00
H2       0.98698    0.87335    0.67144   1.00
C5       1.00262    0.84609    0.61556   1.00
H2       0.97268    0.84656    0.60305   1.00
H2       1.01811    0.81974    0.60461   1.00
C5       1.02445    0.88243    0.60067   1.00
C5       1.01105    0.68075    0.69069   1.00
C5       1.11070    0.81755    0.81281   1.00
H2       0.99088    0.67724    0.71587   1.00
H2       1.03712    0.66184    0.69549   1.00
H2       1.08300    0.83456    0.81091   1.00
H2       1.12895    0.82562    0.78697   1.00
H2       1.19030    0.85024    0.83514   1.00
H2       0.94247    0.63293    0.67965   1.00
H2       0.98763    0.60614    0.67212   1.00
C2       0.89605    0.75091    0.74748   1.00
C3       0.91597    0.71995    0.76596   1.00
O2       0.89674    0.68565    0.77459   1.00
C3       0.91826    0.78198    0.73177   1.00
H1       0.90385    0.80660    0.71834   1.00
C3a      0.95713    0.72017    0.76744   1.00
H1       0.97202    0.69520    0.77970   1.00
C3b      0.95922    0.78151    0.73218   1.00
C4       0.97900    0.75042    0.75003   1.00
O3       1.02167    0.72018    0.68546   1.00
C5       0.88720    0.68435    0.81462   1.00
H2       0.91391    0.68615    0.83321   1.00
C5       0.86674    0.64552    0.82189   1.00
H2       0.86726    0.70877    0.82264   1.00
H2       0.88932    0.62226    0.82416   1.00
H2       0.84907    0.63873    0.79546   1.00
C5       0.84082    0.64597    0.85857   1.00
H2       0.85824    0.65579    0.88410   1.00
C5       0.82453    0.60498    0.86709   1.00
H2       0.81507    0.66565    0.85472   1.00
C5       0.99017    0.66748    0.65372   1.00
H2       1.01215    0.66457    0.62995   1.00
H2       0.96952    0.69092    0.64471   1.00
C5       0.96800    0.62888    0.65982   1.00
C5       0.95225    0.61389    0.62052   1.00
H2       1.19286    0.85783    0.90359   1.00
H2       1.18447    0.90799    0.88453   1.00
H2       1.14323    0.87977    0.90578   1.00
H2       1.03105    0.87889    0.56827   1.00
H2       1.00551    0.90938    0.60525   1.00
H2       1.05293    0.88591    0.61748   1.00
H2       0.79387    0.60763    0.87969   1.00
H2       0.82344    0.58741    0.83888   1.00
H2       0.84423    0.58956    0.88900   1.00
H2       0.95634    0.63732    0.59727   1.00
H2       0.96884    0.58646    0.61166   1.00
H2       0.91990    0.60678    0.62352   1.00
C5       0.64944    0.36782    0.82721   1.00
H2       0.64096    0.35255    0.79993   1.00
H2       0.62573    0.38910    0.83319   1.00
C5       0.65259    0.33806    0.86072   1.00
C5       0.61204    0.32877    0.87768   1.00
H2       0.67151    0.34985    0.88434   1.00
O3       0.78290    0.52000    0.81271   1.00
C4       0.75003    0.47900    0.74958   1.00
C3c      0.71879    0.45757    0.76520   1.00
H1       0.69401    0.47275    0.77747   1.00
C3d      0.78179    0.45865    0.73323   1.00
C3       0.71919    0.41646    0.76579   1.00
O2       0.68565    0.39752    0.77714   1.00
C3       0.78261    0.41773    0.73445   1.00
H1       0.80821    0.40343    0.72281   1.00
C2       0.75146    0.39561    0.75052   1.00
C5       0.82406    0.52121    0.81116   1.00
H2       0.83552    0.55162    0.81251   1.00
H2       0.83517    0.50734    0.78387   1.00
C5       0.83953    0.49871    0.84628   1.00
H2       0.82720    0.46863    0.84553   1.00
H2       0.82856    0.51302    0.87335   1.00
C5       0.88444    0.49738    0.84609   1.00
H2       0.89695    0.52732    0.84656   1.00
H2       0.89539    0.48189    0.81974   1.00
C5       0.89933    0.47555    0.88243   1.00
C5       0.80931    0.48895    0.68075   1.00
C5       0.68719    0.38930    0.81755   1.00
H2       0.78413    0.50912    0.67724   1.00
H2       0.80451    0.46288    0.66184   1.00
H2       0.68909    0.41700    0.83456   1.00
H2       0.71303    0.37105    0.82562   1.00
H2       0.66486    0.30970    0.85024   1.00
H2       0.82035    0.55753    0.63293   1.00
H2       0.82788    0.51237    0.60614   1.00
C2       0.75252    0.60395    0.75091   1.00
C3       0.73404    0.58403    0.71995   1.00
O2       0.72541    0.60326    0.68565   1.00
C3       0.76823    0.58174    0.78198   1.00
H1       0.78166    0.59615    0.80660   1.00
C3a      0.73256    0.54287    0.72017   1.00
H1       0.72030    0.52798    0.69520   1.00
C3b      0.76782    0.54078    0.78151   1.00
C4       0.74997    0.52100    0.75042   1.00
O3       0.81454    0.47833    0.72018   1.00
C5       0.68538    0.61280    0.68435   1.00
H2       0.66679    0.58609    0.68615   1.00
C5       0.67811    0.63326    0.64552   1.00
H2       0.67736    0.63274    0.70877   1.00
H2       0.67584    0.61068    0.62226   1.00
H2       0.70454    0.65093    0.63873   1.00
C5       0.64143    0.65918    0.64597   1.00
H2       0.61590    0.64176    0.65579   1.00
C5       0.63291    0.67547    0.60498   1.00
H2       0.64528    0.68493    0.66565   1.00
C5       0.84628    0.50983    0.66748   1.00
H2       0.87005    0.48785    0.66457   1.00
H2       0.85529    0.53048    0.69092   1.00
C5       0.84018    0.53200    0.62888   1.00
C5       0.87948    0.54775    0.61389   1.00
H2       0.59641    0.30714    0.85783   1.00
H2       0.61547    0.31553    0.90799   1.00
H2       0.59422    0.35677    0.87977   1.00
H2       0.93173    0.46895    0.87889   1.00
H2       0.89475    0.49449    0.90938   1.00
H2       0.88252    0.44707    0.88591   1.00
H2       0.62031    0.70613    0.60763   1.00
H2       0.66112    0.67656    0.58741   1.00
H2       0.61100    0.65577    0.58956   1.00
H2       0.90273    0.54366    0.63732   1.00
H2       0.88834    0.53116    0.58646   1.00
H2       0.87648    0.58010    0.60678   1.00
C5       0.82721    0.64944    0.36782   1.00
H2       0.79993    0.64096    0.35255   1.00
H2       0.83319    0.62573    0.38910   1.00
C5       0.86072    0.65259    0.33806   1.00
C5       0.87768    0.61204    0.32877   1.00
H2       0.88434    0.67151    0.34985   1.00
O3       0.81271    0.78290    0.52000   1.00
C4       0.74958    0.75003    0.47900   1.00
C3c      0.76520    0.71879    0.45757   1.00
H1       0.77747    0.69401    0.47275   1.00
C3d      0.73323    0.78179    0.45865   1.00
C3       0.76579    0.71919    0.41646   1.00
O2       0.77714    0.68565    0.39752   1.00
C3       0.73445    0.78261    0.41773   1.00
H1       0.72281    0.80821    0.40343   1.00
C2       0.75052    0.75146    0.39561   1.00
C5       0.81116    0.82406    0.52121   1.00
H2       0.81251    0.83552    0.55162   1.00
H2       0.78387    0.83517    0.50734   1.00
C5       0.84628    0.83953    0.49871   1.00
H2       0.84553    0.82720    0.46863   1.00
H2       0.87335    0.82856    0.51302   1.00
C5       0.84609    0.88444    0.49738   1.00
H2       0.84656    0.89695    0.52732   1.00
H2       0.81974    0.89539    0.48189   1.00
C5       0.88243    0.89933    0.47555   1.00
C5       0.68075    0.80931    0.48895   1.00
C5       0.81755    0.68719    0.38930   1.00
H2       0.67724    0.78413    0.50912   1.00
H2       0.66184    0.80451    0.46288   1.00
H2       0.83456    0.68909    0.41700   1.00
H2       0.82562    0.71303    0.37105   1.00
H2       0.85024    0.66486    0.30970   1.00
H2       0.63293    0.82035    0.55753   1.00
H2       0.60614    0.82788    0.51237   1.00
C2       0.75091    0.75252    0.60395   1.00
C3       0.71995    0.73404    0.58403   1.00
O2       0.68565    0.72541    0.60326   1.00
C3       0.78198    0.76823    0.58174   1.00
H1       0.80660    0.78166    0.59615   1.00
C3a      0.72017    0.73256    0.54287   1.00
H1       0.69520    0.72030    0.52798   1.00
C3b      0.78151    0.76782    0.54078   1.00
C4       0.75042    0.74997    0.52100   1.00
O3       0.72018    0.81454    0.47833   1.00
C5       0.68435    0.68538    0.61280   1.00
H2       0.68615    0.66679    0.58609   1.00
C5       0.64552    0.67811    0.63326   1.00
H2       0.70877    0.67736    0.63274   1.00
H2       0.62226    0.67584    0.61068   1.00
H2       0.63873    0.70454    0.65093   1.00
C5       0.64597    0.64143    0.65918   1.00
H2       0.65579    0.61590    0.64176   1.00
C5       0.60498    0.63291    0.67547   1.00
H2       0.66565    0.64528    0.68493   1.00
C5       0.66748    0.84628    0.50983   1.00
H2       0.66457    0.87005    0.48785   1.00
H2       0.69092    0.85529    0.53048   1.00
C5       0.62888    0.84018    0.53200   1.00
C5       0.61389    0.87948    0.54775   1.00
H2       0.85783    0.59641    0.30714   1.00
H2       0.90799    0.61547    0.31553   1.00
H2       0.87977    0.59422    0.35677   1.00
H2       0.87889    0.93173    0.46895   1.00
H2       0.90938    0.89475    0.49449   1.00
H2       0.88591    0.88252    0.44707   1.00
H2       0.60763    0.62031    0.70613   1.00
H2       0.58741    0.66112    0.67656   1.00
H2       0.58956    0.61100    0.65577   1.00
H2       0.63732    0.90273    0.54366   1.00
H2       0.58646    0.88834    0.53116   1.00
H2       0.60678    0.87648    0.58010   1.00
C5       0.32721    0.35056    1.13218   1.00
H2       0.29993    0.35904    1.14745   1.00
H2       0.33319    0.37427    1.11090   1.00
C5       0.36072    0.34741    1.16194   1.00
C5       0.37768    0.38796    1.17123   1.00
H2       0.38434    0.32849    1.15015   1.00
O3       0.31271    0.21710    0.98000   1.00
C4       0.24958    0.24997    1.02100   1.00
C3c      0.26520    0.28121    1.04243   1.00
H1       0.27747    0.30599    1.02725   1.00
C3d      0.23323    0.21821    1.04135   1.00
C3       0.26579    0.28081    1.08354   1.00
O2       0.27714    0.31435    1.10248   1.00
C3       0.23445    0.21739    1.08227   1.00
H1       0.22281    0.19179    1.09657   1.00
C2       0.25052    0.24854    1.10439   1.00
C5       0.31116    0.17594    0.97879   1.00
H2       0.31251    0.16448    0.94838   1.00
H2       0.28387    0.16483    0.99266   1.00
C5       0.34628    0.16047    1.00129   1.00
H2       0.34553    0.17280    1.03137   1.00
H2       0.37335    0.17144    0.98698   1.00
C5       0.34609    0.11556    1.00262   1.00
H2       0.34656    0.10305    0.97268   1.00
H2       0.31974    0.10461    1.01811   1.00
C5       0.38243    0.10067    1.02445   1.00
C5       0.18075    0.19069    1.01105   1.00
C5       0.31755    0.31281    1.11070   1.00
H2       0.17724    0.21587    0.99088   1.00
H2       0.16184    0.19549    1.03712   1.00
H2       0.33456    0.31091    1.08300   1.00
H2       0.32562    0.28697    1.12895   1.00
H2       0.35024    0.33514    1.19030   1.00
H2       0.13293    0.17965    0.94247   1.00
H2       0.10614    0.17212    0.98763   1.00
C2       0.25091    0.24748    0.89605   1.00
C3       0.21995    0.26596    0.91597   1.00
O2       0.18565    0.27459    0.89674   1.00
C3       0.28198    0.23177    0.91826   1.00
H1       0.30660    0.21834    0.90385   1.00
C3a      0.22017    0.26744    0.95713   1.00
H1       0.19520    0.27970    0.97202   1.00
C3b      0.28151    0.23218    0.95922   1.00
C4       0.25042    0.25003    0.97900   1.00
O3       0.22018    0.18546    1.02167   1.00
C5       0.18435    0.31462    0.88720   1.00
H2       0.18615    0.33321    0.91391   1.00
C5       0.14552    0.32189    0.86674   1.00
H2       0.20877    0.32264    0.86726   1.00
H2       0.12226    0.32416    0.88932   1.00
H2       0.13873    0.29546    0.84907   1.00
C5       0.14597    0.35857    0.84082   1.00
H2       0.15579    0.38410    0.85824   1.00
C5       0.10498    0.36709    0.82453   1.00
H2       0.16565    0.35472    0.81507   1.00
C5       0.16748    0.15372    0.99017   1.00
H2       0.16457    0.12995    1.01215   1.00
H2       0.19092    0.14471    0.96952   1.00
C5       0.12888    0.15982    0.96800   1.00
C5       0.11389    0.12052    0.95225   1.00
H2       0.35783    0.40359    1.19286   1.00
H2       0.40799    0.38453    1.18447   1.00
H2       0.37977    0.40578    1.14323   1.00
H2       0.37889    0.06827    1.03105   1.00
H2       0.40938    0.10525    1.00551   1.00
H2       0.38591    0.11748    1.05293   1.00
H2       0.10763    0.37969    0.79387   1.00
H2       0.08741    0.33888    0.82344   1.00
H2       0.08956    0.38900    0.84423   1.00
H2       0.13732    0.09727    0.95634   1.00
H2       0.08646    0.11166    0.96884   1.00
H2       0.10678    0.12352    0.91990   1.00
C5       0.35056    0.63218    0.82721   1.00
H2       0.35904    0.64745    0.79993   1.00
H2       0.37427    0.61090    0.83319   1.00
C5       0.34741    0.66194    0.86072   1.00
C5       0.38796    0.67123    0.87768   1.00
H2       0.32849    0.65015    0.88434   1.00
O3       0.21710    0.48000    0.81271   1.00
C4       0.24997    0.52100    0.74958   1.00
C3c      0.28121    0.54243    0.76520   1.00
H1       0.30599    0.52725    0.77747   1.00
C3d      0.21821    0.54135    0.73323   1.00
C3       0.28081    0.58354    0.76579   1.00
O2       0.31435    0.60248    0.77714   1.00
C3       0.21739    0.58227    0.73445   1.00
H1       0.19179    0.59657    0.72281   1.00
C2       0.24854    0.60439    0.75052   1.00
C5       0.17594    0.47879    0.81116   1.00
H2       0.16448    0.44838    0.81251   1.00
H2       0.16483    0.49266    0.78387   1.00
C5       0.16047    0.50129    0.84628   1.00
H2       0.17280    0.53137    0.84553   1.00
H2       0.17144    0.48698    0.87335   1.00
C5       0.11556    0.50262    0.84609   1.00
H2       0.10305    0.47268    0.84656   1.00
H2       0.10461    0.51811    0.81974   1.00
C5       0.10067    0.52445    0.88243   1.00
C5       0.19069    0.51105    0.68075   1.00
C5       0.31281    0.61070    0.81755   1.00
H2       0.21587    0.49088    0.67724   1.00
H2       0.19549    0.53712    0.66184   1.00
H2       0.31091    0.58300    0.83456   1.00
H2       0.28697    0.62895    0.82562   1.00
H2       0.33514    0.69030    0.85024   1.00
H2       0.17965    0.44247    0.63293   1.00
H2       0.17212    0.48763    0.60614   1.00
C2       0.24748    0.39605    0.75091   1.00
C3       0.26596    0.41597    0.71995   1.00
O2       0.27459    0.39674    0.68565   1.00
C3       0.23177    0.41826    0.78198   1.00
H1       0.21834    0.40385    0.80660   1.00
C3a      0.26744    0.45713    0.72017   1.00
H1       0.27970    0.47202    0.69520   1.00
C3b      0.23218    0.45922    0.78151   1.00
C4       0.25003    0.47900    0.75042   1.00
O3       0.18546    0.52167    0.72018   1.00
C5       0.31462    0.38720    0.68435   1.00
H2       0.33321    0.41391    0.68615   1.00
C5       0.32189    0.36674    0.64552   1.00
H2       0.32264    0.36726    0.70877   1.00
H2       0.32416    0.38932    0.62226   1.00
H2       0.29546    0.34907    0.63873   1.00
C5       0.35857    0.34082    0.64597   1.00
H2       0.38410    0.35824    0.65579   1.00
C5       0.36709    0.32453    0.60498   1.00
H2       0.35472    0.31507    0.66565   1.00
C5       0.15372    0.49017    0.66748   1.00
H2       0.12995    0.51215    0.66457   1.00
H2       0.14471    0.46952    0.69092   1.00
C5       0.15982    0.46800    0.62888   1.00
C5       0.12052    0.45225    0.61389   1.00
H2       0.40359    0.69286    0.85783   1.00
H2       0.38453    0.68447    0.90799   1.00
H2       0.40578    0.64323    0.87977   1.00
H2       0.06827    0.53105    0.87889   1.00
H2       0.10525    0.50551    0.90938   1.00
H2       0.11748    0.55293    0.88591   1.00
H2       0.37969    0.29387    0.60763   1.00
H2       0.33888    0.32344    0.58741   1.00
H2       0.38900    0.34423    0.58956   1.00
H2       0.09727    0.45634    0.63732   1.00
H2       0.11166    0.46884    0.58646   1.00
H2       0.12352    0.41990    0.60678   1.00
C5       -0.13218   0.32721    0.64944   1.00
H2       -0.14745   0.29993    0.64096   1.00
H2       -0.11090   0.33319    0.62573   1.00
C5       -0.16194   0.36072    0.65259   1.00
C5       -0.17123   0.37768    0.61204   1.00
H2       -0.15015   0.38434    0.67151   1.00
O3       0.02000    0.31271    0.78290   1.00
C4       -0.02100   0.24958    0.75003   1.00
C3c      -0.04243   0.26520    0.71879   1.00
H1       -0.02725   0.27747    0.69401   1.00
C3d      -0.04135   0.23323    0.78179   1.00
C3       -0.08354   0.26579    0.71919   1.00
O2       -0.10248   0.27714    0.68565   1.00
C3       -0.08227   0.23445    0.78261   1.00
H1       -0.09657   0.22281    0.80821   1.00
C2       -0.10439   0.25052    0.75146   1.00
C5       0.02121    0.31116    0.82406   1.00
H2       0.05162    0.31251    0.83552   1.00
H2       0.00734    0.28387    0.83517   1.00
C5       -0.00129   0.34628    0.83953   1.00
H2       -0.03137   0.34553    0.82720   1.00
H2       0.01302    0.37335    0.82856   1.00
C5       -0.00262   0.34609    0.88444   1.00
H2       0.02732    0.34656    0.89695   1.00
H2       -0.01811   0.31974    0.89539   1.00
C5       -0.02445   0.38243    0.89933   1.00
C5       -0.01105   0.18075    0.80931   1.00
C5       -0.11070   0.31755    0.68719   1.00
H2       0.00912    0.17724    0.78413   1.00
H2       -0.03712   0.16184    0.80451   1.00
H2       -0.08300   0.33456    0.68909   1.00
H2       -0.12895   0.32562    0.71303   1.00
H2       -0.19030   0.35024    0.66486   1.00
H2       0.05753    0.13293    0.82035   1.00
H2       0.01237    0.10614    0.82788   1.00
C2       0.10395    0.25091    0.75252   1.00
C3       0.08403    0.21995    0.73404   1.00
O2       0.10326    0.18565    0.72541   1.00
C3       0.08174    0.28198    0.76823   1.00
H1       0.09615    0.30660    0.78166   1.00
C3a      0.04287    0.22017    0.73256   1.00
H1       0.02798    0.19520    0.72030   1.00
C3b      0.04078    0.28151    0.76782   1.00
C4       0.02100    0.25042    0.74997   1.00
O3       -0.02167   0.22018    0.81454   1.00
C5       0.11280    0.18435    0.68538   1.00
H2       0.08609    0.18615    0.66679   1.00
C5       0.13326    0.14552    0.67811   1.00
H2       0.13274    0.20877    0.67736   1.00
H2       0.11068    0.12226    0.67584   1.00
H2       0.15093    0.13873    0.70454   1.00
C5       0.15918    0.14597    0.64143   1.00
H2       0.14176    0.15579    0.61590   1.00
C5       0.17547    0.10498    0.63291   1.00
H2       0.18493    0.16565    0.64528   1.00
C5       0.00983    0.16748    0.84628   1.00
H2       -0.01215   0.16457    0.87005   1.00
H2       0.03048    0.19092    0.85529   1.00
C5       0.03200    0.12888    0.84018   1.00
C5       0.04775    0.11389    0.87948   1.00
H2       -0.19286   0.35783    0.59641   1.00
H2       -0.18447   0.40799    0.61547   1.00
H2       -0.14323   0.37977    0.59422   1.00
H2       -0.03105   0.37889    0.93173   1.00
H2       -0.00551   0.40938    0.89475   1.00
H2       -0.05293   0.38591    0.88252   1.00
H2       0.20613    0.10763    0.62031   1.00
H2       0.17656    0.08741    0.66112   1.00
H2       0.15577    0.08956    0.61100   1.00
H2       0.04366    0.13732    0.90273   1.00
H2       0.03116    0.08646    0.88834   1.00
H2       0.08010    0.10678    0.87648   1.00
C5       0.63218    0.32721    0.85056   1.00
H2       0.64745    0.29993    0.85904   1.00
H2       0.61090    0.33319    0.87427   1.00
C5       0.66194    0.36072    0.84741   1.00
C5       0.67123    0.37768    0.88796   1.00
H2       0.65015    0.38434    0.82849   1.00
O3       0.48000    0.31271    0.71710   1.00
C4       0.52100    0.24958    0.74997   1.00
C3c      0.54243    0.26520    0.78121   1.00
H1       0.52725    0.27747    0.80599   1.00
C3d      0.54135    0.23323    0.71821   1.00
C3       0.58354    0.26579    0.78081   1.00
O2       0.60248    0.27714    0.81435   1.00
C3       0.58227    0.23445    0.71739   1.00
H1       0.59657    0.22281    0.69179   1.00
C2       0.60439    0.25052    0.74854   1.00
C5       0.47879    0.31116    0.67594   1.00
H2       0.44838    0.31251    0.66448   1.00
H2       0.49266    0.28387    0.66483   1.00
C5       0.50129    0.34628    0.66047   1.00
H2       0.53137    0.34553    0.67280   1.00
H2       0.48698    0.37335    0.67144   1.00
C5       0.50262    0.34609    0.61556   1.00
H2       0.47268    0.34656    0.60305   1.00
H2       0.51811    0.31974    0.60461   1.00
C5       0.52445    0.38243    0.60067   1.00
C5       0.51105    0.18075    0.69069   1.00
C5       0.61070    0.31755    0.81281   1.00
H2       0.49088    0.17724    0.71587   1.00
H2       0.53712    0.16184    0.69549   1.00
H2       0.58300    0.33456    0.81091   1.00
H2       0.62895    0.32562    0.78697   1.00
H2       0.69030    0.35024    0.83514   1.00
H2       0.44247    0.13293    0.67965   1.00
H2       0.48763    0.10614    0.67212   1.00
C2       0.39605    0.25091    0.74748   1.00
C3       0.41597    0.21995    0.76596   1.00
O2       0.39674    0.18565    0.77459   1.00
C3       0.41826    0.28198    0.73177   1.00
H1       0.40385    0.30660    0.71834   1.00
C3a      0.45713    0.22017    0.76744   1.00
H1       0.47202    0.19520    0.77970   1.00
C3b      0.45922    0.28151    0.73218   1.00
C4       0.47900    0.25042    0.75003   1.00
O3       0.52167    0.22018    0.68546   1.00
C5       0.38720    0.18435    0.81462   1.00
H2       0.41391    0.18615    0.83321   1.00
C5       0.36674    0.14552    0.82189   1.00
H2       0.36726    0.20877    0.82264   1.00
H2       0.38932    0.12226    0.82416   1.00
H2       0.34907    0.13873    0.79546   1.00
C5       0.34082    0.14597    0.85857   1.00
H2       0.35824    0.15579    0.88410   1.00
C5       0.32453    0.10498    0.86709   1.00
H2       0.31507    0.16565    0.85472   1.00
C5       0.49017    0.16748    0.65372   1.00
H2       0.51215    0.16457    0.62995   1.00
H2       0.46952    0.19092    0.64471   1.00
C5       0.46800    0.12888    0.65982   1.00
C5       0.45225    0.11389    0.62052   1.00
H2       0.69286    0.35783    0.90359   1.00
H2       0.68447    0.40799    0.88453   1.00
H2       0.64323    0.37977    0.90578   1.00
H2       0.53105    0.37889    0.56827   1.00
H2       0.50551    0.40938    0.60525   1.00
H2       0.55293    0.38591    0.61748   1.00
H2       0.29387    0.10763    0.87969   1.00
H2       0.32344    0.08741    0.83888   1.00
H2       0.34423    0.08956    0.88900   1.00
H2       0.45634    0.13732    0.59727   1.00
H2       0.46884    0.08646    0.61166   1.00
H2       0.41990    0.10678    0.62352   1.00
C5       0.14944    -0.13218   0.82721   1.00
H2       0.14096    -0.14745   0.79993   1.00
H2       0.12573    -0.11090   0.83319   1.00
C5       0.15259    -0.16194   0.86072   1.00
C5       0.11204    -0.17123   0.87768   1.00
H2       0.17151    -0.15015   0.88434   1.00
O3       0.28290    0.02000    0.81271   1.00
C4       0.25003    -0.02100   0.74958   1.00
C3c      0.21879    -0.04243   0.76520   1.00
H1       0.19401    -0.02725   0.77747   1.00
C3d      0.28179    -0.04135   0.73323   1.00
C3       0.21919    -0.08354   0.76579   1.00
O2       0.18565    -0.10248   0.77714   1.00
C3       0.28261    -0.08227   0.73445   1.00
H1       0.30821    -0.09657   0.72281   1.00
C2       0.25146    -0.10439   0.75052   1.00
C5       0.32406    0.02121    0.81116   1.00
H2       0.33552    0.05162    0.81251   1.00
H2       0.33517    0.00734    0.78387   1.00
C5       0.33953    -0.00129   0.84628   1.00
H2       0.32720    -0.03137   0.84553   1.00
H2       0.32856    0.01302    0.87335   1.00
C5       0.38444    -0.00262   0.84609   1.00
H2       0.39695    0.02732    0.84656   1.00
H2       0.39539    -0.01811   0.81974   1.00
C5       0.39933    -0.02445   0.88243   1.00
C5       0.30931    -0.01105   0.68075   1.00
C5       0.18719    -0.11070   0.81755   1.00
H2       0.28413    0.00912    0.67724   1.00
H2       0.30451    -0.03712   0.66184   1.00
H2       0.18909    -0.08300   0.83456   1.00
H2       0.21303    -0.12895   0.82562   1.00
H2       0.16486    -0.19030   0.85024   1.00
H2       0.32035    0.05753    0.63293   1.00
H2       0.32788    0.01237    0.60614   1.00
C2       0.25252    0.10395    0.75091   1.00
C3       0.23404    0.08403    0.71995   1.00
O2       0.22541    0.10326    0.68565   1.00
C3       0.26823    0.08174    0.78198   1.00
H1       0.28166    0.09615    0.80660   1.00
C3a      0.23256    0.04287    0.72017   1.00
H1       0.22030    0.02798    0.69520   1.00
C3b      0.26782    0.04078    0.78151   1.00
C4       0.24997    0.02100    0.75042   1.00
O3       0.31454    -0.02167   0.72018   1.00
C5       0.18538    0.11280    0.68435   1.00
H2       0.16679    0.08609    0.68615   1.00
C5       0.17811    0.13326    0.64552   1.00
H2       0.17736    0.13274    0.70877   1.00
H2       0.17584    0.11068    0.62226   1.00
H2       0.20454    0.15093    0.63873   1.00
C5       0.14143    0.15918    0.64597   1.00
H2       0.11590    0.14176    0.65579   1.00
C5       0.13291    0.17547    0.60498   1.00
H2       0.14528    0.18493    0.66565   1.00
C5       0.34628    0.00983    0.66748   1.00
H2       0.37005    -0.01215   0.66457   1.00
H2       0.35529    0.03048    0.69092   1.00
C5       0.34018    0.03200    0.62888   1.00
C5       0.37948    0.04775    0.61389   1.00
H2       0.09641    -0.19286   0.85783   1.00
H2       0.11547    -0.18447   0.90799   1.00
H2       0.09422    -0.14323   0.87977   1.00
H2       0.43173    -0.03105   0.87889   1.00
H2       0.39475    -0.00551   0.90938   1.00
H2       0.38252    -0.05293   0.88591   1.00
H2       0.12031    0.20613    0.60763   1.00
H2       0.16112    0.17656    0.58741   1.00
H2       0.11100    0.15577    0.58956   1.00
H2       0.40273    0.04366    0.63732   1.00
H2       0.38834    0.03116    0.58646   1.00
H2       0.37648    0.08010    0.60678   1.00
C5       0.32721    0.14944    0.36782   1.00
H2       0.29993    0.14096    0.35255   1.00
H2       0.33319    0.12573    0.38910   1.00
C5       0.36072    0.15259    0.33806   1.00
C5       0.37768    0.11204    0.32877   1.00
H2       0.38434    0.17151    0.34985   1.00
O3       0.31271    0.28290    0.52000   1.00
C4       0.24958    0.25003    0.47900   1.00
C3c      0.26520    0.21879    0.45757   1.00
H1       0.27747    0.19401    0.47275   1.00
C3d      0.23323    0.28179    0.45865   1.00
C3       0.26579    0.21919    0.41646   1.00
O2       0.27714    0.18565    0.39752   1.00
C3       0.23445    0.28261    0.41773   1.00
H1       0.22281    0.30821    0.40343   1.00
C2       0.25052    0.25146    0.39561   1.00
C5       0.31116    0.32406    0.52121   1.00
H2       0.31251    0.33552    0.55162   1.00
H2       0.28387    0.33517    0.50734   1.00
C5       0.34628    0.33953    0.49871   1.00
H2       0.34553    0.32720    0.46863   1.00
H2       0.37335    0.32856    0.51302   1.00
C5       0.34609    0.38444    0.49738   1.00
H2       0.34656    0.39695    0.52732   1.00
H2       0.31974    0.39539    0.48189   1.00
C5       0.38243    0.39933    0.47555   1.00
C5       0.18075    0.30931    0.48895   1.00
C5       0.31755    0.18719    0.38930   1.00
H2       0.17724    0.28413    0.50912   1.00
H2       0.16184    0.30451    0.46288   1.00
H2       0.33456    0.18909    0.41700   1.00
H2       0.32562    0.21303    0.37105   1.00
H2       0.35024    0.16486    0.30970   1.00
H2       0.13293    0.32035    0.55753   1.00
H2       0.10614    0.32788    0.51237   1.00
C2       0.25091    0.25252    0.60395   1.00
C3       0.21995    0.23404    0.58403   1.00
O2       0.18565    0.22541    0.60326   1.00
C3       0.28198    0.26823    0.58174   1.00
H1       0.30660    0.28166    0.59615   1.00
C3a      0.22017    0.23256    0.54287   1.00
H1       0.19520    0.22030    0.52798   1.00
C3b      0.28151    0.26782    0.54078   1.00
C4       0.25042    0.24997    0.52100   1.00
O3       0.22018    0.31454    0.47833   1.00
C5       0.18435    0.18538    0.61280   1.00
H2       0.18615    0.16679    0.58609   1.00
C5       0.14552    0.17811    0.63326   1.00
H2       0.20877    0.17736    0.63274   1.00
H2       0.12226    0.17584    0.61068   1.00
H2       0.13873    0.20454    0.65093   1.00
C5       0.14597    0.14143    0.65918   1.00
H2       0.15579    0.11590    0.64176   1.00
C5       0.10498    0.13291    0.67547   1.00
H2       0.16565    0.14528    0.68493   1.00
C5       0.16748    0.34628    0.50983   1.00
H2       0.16457    0.37005    0.48785   1.00
H2       0.19092    0.35529    0.53048   1.00
C5       0.12888    0.34018    0.53200   1.00
C5       0.11389    0.37948    0.54775   1.00
H2       0.35783    0.09641    0.30714   1.00
H2       0.40799    0.11547    0.31553   1.00
H2       0.37977    0.09422    0.35677   1.00
H2       0.37889    0.43173    0.46895   1.00
H2       0.40938    0.39475    0.49449   1.00
H2       0.38591    0.38252    0.44707   1.00
H2       0.10763    0.12031    0.70613   1.00
H2       0.08741    0.16112    0.67656   1.00
H2       0.08956    0.11100    0.65577   1.00
H2       0.13732    0.40273    0.54366   1.00
H2       0.08646    0.38834    0.53116   1.00
H2       0.10678    0.37648    0.58010   1.00
C5       0.32721    0.85056    0.63218   1.00
H2       0.29993    0.85904    0.64745   1.00
H2       0.33319    0.87427    0.61090   1.00
C5       0.36072    0.84741    0.66194   1.00
C5       0.37768    0.88796    0.67123   1.00
H2       0.38434    0.82849    0.65015   1.00
O3       0.31271    0.71710    0.48000   1.00
C4       0.24958    0.74997    0.52100   1.00
C3c      0.26520    0.78121    0.54243   1.00
H1       0.27747    0.80599    0.52725   1.00
C3d      0.23323    0.71821    0.54135   1.00
C3       0.26579    0.78081    0.58354   1.00
O2       0.27714    0.81435    0.60248   1.00
C3       0.23445    0.71739    0.58227   1.00
H1       0.22281    0.69179    0.59657   1.00
C2       0.25052    0.74854    0.60439   1.00
C5       0.31116    0.67594    0.47879   1.00
H2       0.31251    0.66448    0.44838   1.00
H2       0.28387    0.66483    0.49266   1.00
C5       0.34628    0.66047    0.50129   1.00
H2       0.34553    0.67280    0.53137   1.00
H2       0.37335    0.67144    0.48698   1.00
C5       0.34609    0.61556    0.50262   1.00
H2       0.34656    0.60305    0.47268   1.00
H2       0.31974    0.60461    0.51811   1.00
C5       0.38243    0.60067    0.52445   1.00
C5       0.18075    0.69069    0.51105   1.00
C5       0.31755    0.81281    0.61070   1.00
H2       0.17724    0.71587    0.49088   1.00
H2       0.16184    0.69549    0.53712   1.00
H2       0.33456    0.81091    0.58300   1.00
H2       0.32562    0.78697    0.62895   1.00
H2       0.35024    0.83514    0.69030   1.00
H2       0.13293    0.67965    0.44247   1.00
H2       0.10614    0.67212    0.48763   1.00
C2       0.25091    0.74748    0.39605   1.00
C3       0.21995    0.76596    0.41597   1.00
O2       0.18565    0.77459    0.39674   1.00
C3       0.28198    0.73177    0.41826   1.00
H1       0.30660    0.71834    0.40385   1.00
C3a      0.22017    0.76744    0.45713   1.00
H1       0.19520    0.77970    0.47202   1.00
C3b      0.28151    0.73218    0.45922   1.00
C4       0.25042    0.75003    0.47900   1.00
O3       0.22018    0.68546    0.52167   1.00
C5       0.18435    0.81462    0.38720   1.00
H2       0.18615    0.83321    0.41391   1.00
C5       0.14552    0.82189    0.36674   1.00
H2       0.20877    0.82264    0.36726   1.00
H2       0.12226    0.82416    0.38932   1.00
H2       0.13873    0.79546    0.34907   1.00
C5       0.14597    0.85857    0.34082   1.00
H2       0.15579    0.88410    0.35824   1.00
C5       0.10498    0.86709    0.32453   1.00
H2       0.16565    0.85472    0.31507   1.00
C5       0.16748    0.65372    0.49017   1.00
H2       0.16457    0.62995    0.51215   1.00
H2       0.19092    0.64471    0.46952   1.00
C5       0.12888    0.65982    0.46800   1.00
C5       0.11389    0.62052    0.45225   1.00
H2       0.35783    0.90359    0.69286   1.00
H2       0.40799    0.88453    0.68447   1.00
H2       0.37977    0.90578    0.64323   1.00
H2       0.37889    0.56827    0.53105   1.00
H2       0.40938    0.60525    0.50551   1.00
H2       0.38591    0.61748    0.55293   1.00
H2       0.10763    0.87969    0.29387   1.00
H2       0.08741    0.83888    0.32344   1.00
H2       0.08956    0.88900    0.34423   1.00
H2       0.13732    0.59727    0.45634   1.00
H2       0.08646    0.61166    0.46884   1.00
H2       0.10678    0.62352    0.41990   1.00
C5       0.35056    1.13218    0.32721   1.00
H2       0.35904    1.14745    0.29993   1.00
H2       0.37427    1.11090    0.33319   1.00
C5       0.34741    1.16194    0.36072   1.00
C5       0.38796    1.17123    0.37768   1.00
H2       0.32849    1.15015    0.38434   1.00
O3       0.21710    0.98000    0.31271   1.00
C4       0.24997    1.02100    0.24958   1.00
C3c      0.28121    1.04243    0.26520   1.00
H1       0.30599    1.02725    0.27747   1.00
C3d      0.21821    1.04135    0.23323   1.00
C3       0.28081    1.08354    0.26579   1.00
O2       0.31435    1.10248    0.27714   1.00
C3       0.21739    1.08227    0.23445   1.00
H1       0.19179    1.09657    0.22281   1.00
C2       0.24854    1.10439    0.25052   1.00
C5       0.17594    0.97879    0.31116   1.00
H2       0.16448    0.94838    0.31251   1.00
H2       0.16483    0.99266    0.28387   1.00
C5       0.16047    1.00129    0.34628   1.00
H2       0.17280    1.03137    0.34553   1.00
H2       0.17144    0.98698    0.37335   1.00
C5       0.11556    1.00262    0.34609   1.00
H2       0.10305    0.97268    0.34656   1.00
H2       0.10461    1.01811    0.31974   1.00
C5       0.10067    1.02445    0.38243   1.00
C5       0.19069    1.01105    0.18075   1.00
C5       0.31281    1.11070    0.31755   1.00
H2       0.21587    0.99088    0.17724   1.00
H2       0.19549    1.03712    0.16184   1.00
H2       0.31091    1.08300    0.33456   1.00
H2       0.28697    1.12895    0.32562   1.00
H2       0.33514    1.19030    0.35024   1.00
H2       0.17965    0.94247    0.13293   1.00
H2       0.17212    0.98763    0.10614   1.00
C2       0.24748    0.89605    0.25091   1.00
C3       0.26596    0.91597    0.21995   1.00
O2       0.27459    0.89674    0.18565   1.00
C3       0.23177    0.91826    0.28198   1.00
H1       0.21834    0.90385    0.30660   1.00
C3a      0.26744    0.95713    0.22017   1.00
H1       0.27970    0.97202    0.19520   1.00
C3b      0.23218    0.95922    0.28151   1.00
C4       0.25003    0.97900    0.25042   1.00
O3       0.18546    1.02167    0.22018   1.00
C5       0.31462    0.88720    0.18435   1.00
H2       0.33321    0.91391    0.18615   1.00
C5       0.32189    0.86674    0.14552   1.00
H2       0.32264    0.86726    0.20877   1.00
H2       0.32416    0.88932    0.12226   1.00
H2       0.29546    0.84907    0.13873   1.00
C5       0.35857    0.84082    0.14597   1.00
H2       0.38410    0.85824    0.15579   1.00
C5       0.36709    0.82453    0.10498   1.00
H2       0.35472    0.81507    0.16565   1.00
C5       0.15372    0.99017    0.16748   1.00
H2       0.12995    1.01215    0.16457   1.00
H2       0.14471    0.96952    0.19092   1.00
C5       0.15982    0.96800    0.12888   1.00
C5       0.12052    0.95225    0.11389   1.00
H2       0.40359    1.19286    0.35783   1.00
H2       0.38453    1.18447    0.40799   1.00
H2       0.40578    1.14323    0.37977   1.00
H2       0.06827    1.03105    0.37889   1.00
H2       0.10525    1.00551    0.40938   1.00
H2       0.11748    1.05293    0.38591   1.00
H2       0.37969    0.79387    0.10763   1.00
H2       0.33888    0.82344    0.08741   1.00
H2       0.38900    0.84423    0.08956   1.00
H2       0.09727    0.95634    0.13732   1.00
H2       0.11166    0.96884    0.08646   1.00
H2       0.12352    0.91990    0.10678   1.00
C5       -0.13218   0.82721    0.14944   1.00
H2       -0.14745   0.79993    0.14096   1.00
H2       -0.11090   0.83319    0.12573   1.00
C5       -0.16194   0.86072    0.15259   1.00
C5       -0.17123   0.87768    0.11204   1.00
H2       -0.15015   0.88434    0.17151   1.00
O3       0.02000    0.81271    0.28290   1.00
C4       -0.02100   0.74958    0.25003   1.00
C3c      -0.04243   0.76520    0.21879   1.00
H1       -0.02725   0.77747    0.19401   1.00
C3d      -0.04135   0.73323    0.28179   1.00
C3       -0.08354   0.76579    0.21919   1.00
O2       -0.10248   0.77714    0.18565   1.00
C3       -0.08227   0.73445    0.28261   1.00
H1       -0.09657   0.72281    0.30821   1.00
C2       -0.10439   0.75052    0.25146   1.00
C5       0.02121    0.81116    0.32406   1.00
H2       0.05162    0.81251    0.33552   1.00
H2       0.00734    0.78387    0.33517   1.00
C5       -0.00129   0.84628    0.33953   1.00
H2       -0.03137   0.84553    0.32720   1.00
H2       0.01302    0.87335    0.32856   1.00
C5       -0.00262   0.84609    0.38444   1.00
H2       0.02732    0.84656    0.39695   1.00
H2       -0.01811   0.81974    0.39539   1.00
C5       -0.02445   0.88243    0.39933   1.00
C5       -0.01105   0.68075    0.30931   1.00
C5       -0.11070   0.81755    0.18719   1.00
H2       0.00912    0.67724    0.28413   1.00
H2       -0.03712   0.66184    0.30451   1.00
H2       -0.08300   0.83456    0.18909   1.00
H2       -0.12895   0.82562    0.21303   1.00
H2       -0.19030   0.85024    0.16486   1.00
H2       0.05753    0.63293    0.32035   1.00
H2       0.01237    0.60614    0.32788   1.00
C2       0.10395    0.75091    0.25252   1.00
C3       0.08403    0.71995    0.23404   1.00
O2       0.10326    0.68565    0.22541   1.00
C3       0.08174    0.78198    0.26823   1.00
H1       0.09615    0.80660    0.28166   1.00
C3a      0.04287    0.72017    0.23256   1.00
H1       0.02798    0.69520    0.22030   1.00
C3b      0.04078    0.78151    0.26782   1.00
C4       0.02100    0.75042    0.24997   1.00
O3       -0.02167   0.72018    0.31454   1.00
C5       0.11280    0.68435    0.18538   1.00
H2       0.08609    0.68615    0.16679   1.00
C5       0.13326    0.64552    0.17811   1.00
H2       0.13274    0.70877    0.17736   1.00
H2       0.11068    0.62226    0.17584   1.00
H2       0.15093    0.63873    0.20454   1.00
C5       0.15918    0.64597    0.14143   1.00
H2       0.14176    0.65579    0.11590   1.00
C5       0.17547    0.60498    0.13291   1.00
H2       0.18493    0.66565    0.14528   1.00
C5       0.00983    0.66748    0.34628   1.00
H2       -0.01215   0.66457    0.37005   1.00
H2       0.03048    0.69092    0.35529   1.00
C5       0.03200    0.62888    0.34018   1.00
C5       0.04775    0.61389    0.37948   1.00
H2       -0.19286   0.85783    0.09641   1.00
H2       -0.18447   0.90799    0.11547   1.00
H2       -0.14323   0.87977    0.09422   1.00
H2       -0.03105   0.87889    0.43173   1.00
H2       -0.00551   0.90938    0.39475   1.00
H2       -0.05293   0.88591    0.38252   1.00
H2       0.20613    0.60763    0.12031   1.00
H2       0.17656    0.58741    0.16112   1.00
H2       0.15577    0.58956    0.11100   1.00
H2       0.04366    0.63732    0.40273   1.00
H2       0.03116    0.58646    0.38834   1.00
H2       0.08010    0.60678    0.37648   1.00
C5       0.63218    0.82721    0.35056   1.00
H2       0.64745    0.79993    0.35904   1.00
H2       0.61090    0.83319    0.37427   1.00
C5       0.66194    0.86072    0.34741   1.00
C5       0.67123    0.87768    0.38796   1.00
H2       0.65015    0.88434    0.32849   1.00
O3       0.48000    0.81271    0.21710   1.00
C4       0.52100    0.74958    0.24997   1.00
C3c      0.54243    0.76520    0.28121   1.00
H1       0.52725    0.77747    0.30599   1.00
C3d      0.54135    0.73323    0.21821   1.00
C3       0.58354    0.76579    0.28081   1.00
O2       0.60248    0.77714    0.31435   1.00
C3       0.58227    0.73445    0.21739   1.00
H1       0.59657    0.72281    0.19179   1.00
C2       0.60439    0.75052    0.24854   1.00
C5       0.47879    0.81116    0.17594   1.00
H2       0.44838    0.81251    0.16448   1.00
H2       0.49266    0.78387    0.16483   1.00
C5       0.50129    0.84628    0.16047   1.00
H2       0.53137    0.84553    0.17280   1.00
H2       0.48698    0.87335    0.17144   1.00
C5       0.50262    0.84609    0.11556   1.00
H2       0.47268    0.84656    0.10305   1.00
H2       0.51811    0.81974    0.10461   1.00
C5       0.52445    0.88243    0.10067   1.00
C5       0.51105    0.68075    0.19069   1.00
C5       0.61070    0.81755    0.31281   1.00
H2       0.49088    0.67724    0.21587   1.00
H2       0.53712    0.66184    0.19549   1.00
H2       0.58300    0.83456    0.31091   1.00
H2       0.62895    0.82562    0.28697   1.00
H2       0.69030    0.85024    0.33514   1.00
H2       0.44247    0.63293    0.17965   1.00
H2       0.48763    0.60614    0.17212   1.00
C2       0.39605    0.75091    0.24748   1.00
C3       0.41597    0.71995    0.26596   1.00
O2       0.39674    0.68565    0.27459   1.00
C3       0.41826    0.78198    0.23177   1.00
H1       0.40385    0.80660    0.21834   1.00
C3a      0.45713    0.72017    0.26744   1.00
H1       0.47202    0.69520    0.27970   1.00
C3b      0.45922    0.78151    0.23218   1.00
C4       0.47900    0.75042    0.25003   1.00
O3       0.52167    0.72018    0.18546   1.00
C5       0.38720    0.68435    0.31462   1.00
H2       0.41391    0.68615    0.33321   1.00
C5       0.36674    0.64552    0.32189   1.00
H2       0.36726    0.70877    0.32264   1.00
H2       0.38932    0.62226    0.32416   1.00
H2       0.34907    0.63873    0.29546   1.00
C5       0.34082    0.64597    0.35857   1.00
H2       0.35824    0.65579    0.38410   1.00
C5       0.32453    0.60498    0.36709   1.00
H2       0.31507    0.66565    0.35472   1.00
C5       0.49017    0.66748    0.15372   1.00
H2       0.51215    0.66457    0.12995   1.00
H2       0.46952    0.69092    0.14471   1.00
C5       0.46800    0.62888    0.15982   1.00
C5       0.45225    0.61389    0.12052   1.00
H2       0.69286    0.85783    0.40359   1.00
H2       0.68447    0.90799    0.38453   1.00
H2       0.64323    0.87977    0.40578   1.00
H2       0.53105    0.87889    0.06827   1.00
H2       0.50551    0.90938    0.10525   1.00
H2       0.55293    0.88591    0.11748   1.00
H2       0.29387    0.60763    0.37969   1.00
H2       0.32344    0.58741    0.33888   1.00
H2       0.34423    0.58956    0.38900   1.00
H2       0.45634    0.63732    0.09727   1.00
H2       0.46884    0.58646    0.11166   1.00
H2       0.41990    0.60678    0.12352   1.00
C5       0.14944    0.36782    0.32721   1.00
H2       0.14096    0.35255    0.29993   1.00
H2       0.12573    0.38910    0.33319   1.00
C5       0.15259    0.33806    0.36072   1.00
C5       0.11204    0.32877    0.37768   1.00
H2       0.17151    0.34985    0.38434   1.00
O3       0.28290    0.52000    0.31271   1.00
C4       0.25003    0.47900    0.24958   1.00
C3c      0.21879    0.45757    0.26520   1.00
H1       0.19401    0.47275    0.27747   1.00
C3d      0.28179    0.45865    0.23323   1.00
C3       0.21919    0.41646    0.26579   1.00
O2       0.18565    0.39752    0.27714   1.00
C3       0.28261    0.41773    0.23445   1.00
H1       0.30821    0.40343    0.22281   1.00
C2       0.25146    0.39561    0.25052   1.00
C5       0.32406    0.52121    0.31116   1.00
H2       0.33552    0.55162    0.31251   1.00
H2       0.33517    0.50734    0.28387   1.00
C5       0.33953    0.49871    0.34628   1.00
H2       0.32720    0.46863    0.34553   1.00
H2       0.32856    0.51302    0.37335   1.00
C5       0.38444    0.49738    0.34609   1.00
H2       0.39695    0.52732    0.34656   1.00
H2       0.39539    0.48189    0.31974   1.00
C5       0.39933    0.47555    0.38243   1.00
C5       0.30931    0.48895    0.18075   1.00
C5       0.18719    0.38930    0.31755   1.00
H2       0.28413    0.50912    0.17724   1.00
H2       0.30451    0.46288    0.16184   1.00
H2       0.18909    0.41700    0.33456   1.00
H2       0.21303    0.37105    0.32562   1.00
H2       0.16486    0.30970    0.35024   1.00
H2       0.32035    0.55753    0.13293   1.00
H2       0.32788    0.51237    0.10614   1.00
C2       0.25252    0.60395    0.25091   1.00
C3       0.23404    0.58403    0.21995   1.00
O2       0.22541    0.60326    0.18565   1.00
C3       0.26823    0.58174    0.28198   1.00
H1       0.28166    0.59615    0.30660   1.00
C3a      0.23256    0.54287    0.22017   1.00
H1       0.22030    0.52798    0.19520   1.00
C3b      0.26782    0.54078    0.28151   1.00
C4       0.24997    0.52100    0.25042   1.00
O3       0.31454    0.47833    0.22018   1.00
C5       0.18538    0.61280    0.18435   1.00
H2       0.16679    0.58609    0.18615   1.00
C5       0.17811    0.63326    0.14552   1.00
H2       0.17736    0.63274    0.20877   1.00
H2       0.17584    0.61068    0.12226   1.00
H2       0.20454    0.65093    0.13873   1.00
C5       0.14143    0.65918    0.14597   1.00
H2       0.11590    0.64176    0.15579   1.00
C5       0.13291    0.67547    0.10498   1.00
H2       0.14528    0.68493    0.16565   1.00
C5       0.34628    0.50983    0.16748   1.00
H2       0.37005    0.48785    0.16457   1.00
H2       0.35529    0.53048    0.19092   1.00
C5       0.34018    0.53200    0.12888   1.00
C5       0.37948    0.54775    0.11389   1.00
H2       0.09641    0.30714    0.35783   1.00
H2       0.11547    0.31553    0.40799   1.00
H2       0.09422    0.35677    0.37977   1.00
H2       0.43173    0.46895    0.37889   1.00
H2       0.39475    0.49449    0.40938   1.00
H2       0.38252    0.44707    0.38591   1.00
H2       0.12031    0.70613    0.10763   1.00
H2       0.16112    0.67656    0.08741   1.00
H2       0.11100    0.65577    0.08956   1.00
H2       0.40273    0.54366    0.13732   1.00
H2       0.38834    0.53116    0.08646   1.00
H2       0.37648    0.58010    0.10678   1.00
C5       0.32721    0.64944    -0.13218   1.00
H2       0.29993    0.64096    -0.14745   1.00
H2       0.33319    0.62573    -0.11090   1.00
C5       0.36072    0.65259    -0.16194   1.00
C5       0.37768    0.61204    -0.17123   1.00
H2       0.38434    0.67151    -0.15015   1.00
O3       0.31271    0.78290    0.02000   1.00
C4       0.24958    0.75003    -0.02100   1.00
C3c      0.26520    0.71879    -0.04243   1.00
H1       0.27747    0.69401    -0.02725   1.00
C3d      0.23323    0.78179    -0.04135   1.00
C3       0.26579    0.71919    -0.08354   1.00
O2       0.27714    0.68565    -0.10248   1.00
C3       0.23445    0.78261    -0.08227   1.00
H1       0.22281    0.80821    -0.09657   1.00
C2       0.25052    0.75146    -0.10439   1.00
C5       0.31116    0.82406    0.02121   1.00
H2       0.31251    0.83552    0.05162   1.00
H2       0.28387    0.83517    0.00734   1.00
C5       0.34628    0.83953    -0.00129   1.00
H2       0.34553    0.82720    -0.03137   1.00
H2       0.37335    0.82856    0.01302   1.00
C5       0.34609    0.88444    -0.00262   1.00
H2       0.34656    0.89695    0.02732   1.00
H2       0.31974    0.89539    -0.01811   1.00
C5       0.38243    0.89933    -0.02445   1.00
C5       0.18075    0.80931    -0.01105   1.00
C5       0.31755    0.68719    -0.11070   1.00
H2       0.17724    0.78413    0.00912   1.00
H2       0.16184    0.80451    -0.03712   1.00
H2       0.33456    0.68909    -0.08300   1.00
H2       0.32562    0.71303    -0.12895   1.00
H2       0.35024    0.66486    -0.19030   1.00
H2       0.13293    0.82035    0.05753   1.00
H2       0.10614    0.82788    0.01237   1.00
C2       0.25091    0.75252    0.10395   1.00
C3       0.21995    0.73404    0.08403   1.00
O2       0.18565    0.72541    0.10326   1.00
C3       0.28198    0.76823    0.08174   1.00
H1       0.30660    0.78166    0.09615   1.00
C3a      0.22017    0.73256    0.04287   1.00
H1       0.19520    0.72030    0.02798   1.00
C3b      0.28151    0.76782    0.04078   1.00
C4       0.25042    0.74997    0.02100   1.00
O3       0.22018    0.81454    -0.02167   1.00
C5       0.18435    0.68538    0.11280   1.00
H2       0.18615    0.66679    0.08609   1.00
C5       0.14552    0.67811    0.13326   1.00
H2       0.20877    0.67736    0.13274   1.00
H2       0.12226    0.67584    0.11068   1.00
H2       0.13873    0.70454    0.15093   1.00
C5       0.14597    0.64143    0.15918   1.00
H2       0.15579    0.61590    0.14176   1.00
C5       0.10498    0.63291    0.17547   1.00
H2       0.16565    0.64528    0.18493   1.00
C5       0.16748    0.84628    0.00983   1.00
H2       0.16457    0.87005    -0.01215   1.00
H2       0.19092    0.85529    0.03048   1.00
C5       0.12888    0.84018    0.03200   1.00
C5       0.11389    0.87948    0.04775   1.00
H2       0.35783    0.59641    -0.19286   1.00
H2       0.40799    0.61547    -0.18447   1.00
H2       0.37977    0.59422    -0.14323   1.00
H2       0.37889    0.93173    -0.03105   1.00
H2       0.40938    0.89475    -0.00551   1.00
H2       0.38591    0.88252    -0.05293   1.00
H2       0.10763    0.62031    0.20613   1.00
H2       0.08741    0.66112    0.17656   1.00
H2       0.08956    0.61100    0.15577   1.00
H2       0.13732    0.90273    0.04366   1.00
H2       0.08646    0.88834    0.03116   1.00
H2       0.10678    0.87648    0.08010   1.00
C5       0.82721    0.35056    0.63218   1.00
H2       0.79993    0.35904    0.64745   1.00
H2       0.83319    0.37427    0.61090   1.00
C5       0.86072    0.34741    0.66194   1.00
C5       0.87768    0.38796    0.67123   1.00
H2       0.88434    0.32849    0.65015   1.00
O3       0.81271    0.21710    0.48000   1.00
C4       0.74958    0.24997    0.52100   1.00
C3c      0.76520    0.28121    0.54243   1.00
H1       0.77747    0.30599    0.52725   1.00
C3d      0.73323    0.21821    0.54135   1.00
C3       0.76579    0.28081    0.58354   1.00
O2       0.77714    0.31435    0.60248   1.00
C3       0.73445    0.21739    0.58227   1.00
H1       0.72281    0.19179    0.59657   1.00
C2       0.75052    0.24854    0.60439   1.00
C5       0.81116    0.17594    0.47879   1.00
H2       0.81251    0.16448    0.44838   1.00
H2       0.78387    0.16483    0.49266   1.00
C5       0.84628    0.16047    0.50129   1.00
H2       0.84553    0.17280    0.53137   1.00
H2       0.87335    0.17144    0.48698   1.00
C5       0.84609    0.11556    0.50262   1.00
H2       0.84656    0.10305    0.47268   1.00
H2       0.81974    0.10461    0.51811   1.00
C5       0.88243    0.10067    0.52445   1.00
C5       0.68075    0.19069    0.51105   1.00
C5       0.81755    0.31281    0.61070   1.00
H2       0.67724    0.21587    0.49088   1.00
H2       0.66184    0.19549    0.53712   1.00
H2       0.83456    0.31091    0.58300   1.00
H2       0.82562    0.28697    0.62895   1.00
H2       0.85024    0.33514    0.69030   1.00
H2       0.63293    0.17965    0.44247   1.00
H2       0.60614    0.17212    0.48763   1.00
C2       0.75091    0.24748    0.39605   1.00
C3       0.71995    0.26596    0.41597   1.00
O2       0.68565    0.27459    0.39674   1.00
C3       0.78198    0.23177    0.41826   1.00
H1       0.80660    0.21834    0.40385   1.00
C3a      0.72017    0.26744    0.45713   1.00
H1       0.69520    0.27970    0.47202   1.00
C3b      0.78151    0.23218    0.45922   1.00
C4       0.75042    0.25003    0.47900   1.00
O3       0.72018    0.18546    0.52167   1.00
C5       0.68435    0.31462    0.38720   1.00
H2       0.68615    0.33321    0.41391   1.00
C5       0.64552    0.32189    0.36674   1.00
H2       0.70877    0.32264    0.36726   1.00
H2       0.62226    0.32416    0.38932   1.00
H2       0.63873    0.29546    0.34907   1.00
C5       0.64597    0.35857    0.34082   1.00
H2       0.65579    0.38410    0.35824   1.00
C5       0.60498    0.36709    0.32453   1.00
H2       0.66565    0.35472    0.31507   1.00
C5       0.66748    0.15372    0.49017   1.00
H2       0.66457    0.12995    0.51215   1.00
H2       0.69092    0.14471    0.46952   1.00
C5       0.62888    0.15982    0.46800   1.00
C5       0.61389    0.12052    0.45225   1.00
H2       0.85783    0.40359    0.69286   1.00
H2       0.90799    0.38453    0.68447   1.00
H2       0.87977    0.40578    0.64323   1.00
H2       0.87889    0.06827    0.53105   1.00
H2       0.90938    0.10525    0.50551   1.00
H2       0.88591    0.11748    0.55293   1.00
H2       0.60763    0.37969    0.29387   1.00
H2       0.58741    0.33888    0.32344   1.00
H2       0.58956    0.38900    0.34423   1.00
H2       0.63732    0.09727    0.45634   1.00
H2       0.58646    0.11166    0.46884   1.00
H2       0.60678    0.12352    0.41990   1.00
C5       0.85056    0.63218    0.32721   1.00
H2       0.85904    0.64745    0.29993   1.00
H2       0.87427    0.61090    0.33319   1.00
C5       0.84741    0.66194    0.36072   1.00
C5       0.88796    0.67123    0.37768   1.00
H2       0.82849    0.65015    0.38434   1.00
O3       0.71710    0.48000    0.31271   1.00
C4       0.74997    0.52100    0.24958   1.00
C3c      0.78121    0.54243    0.26520   1.00
H1       0.80599    0.52725    0.27747   1.00
C3d      0.71821    0.54135    0.23323   1.00
C3       0.78081    0.58354    0.26579   1.00
O2       0.81435    0.60248    0.27714   1.00
C3       0.71739    0.58227    0.23445   1.00
H1       0.69179    0.59657    0.22281   1.00
C2       0.74854    0.60439    0.25052   1.00
C5       0.67594    0.47879    0.31116   1.00
H2       0.66448    0.44838    0.31251   1.00
H2       0.66483    0.49266    0.28387   1.00
C5       0.66047    0.50129    0.34628   1.00
H2       0.67280    0.53137    0.34553   1.00
H2       0.67144    0.48698    0.37335   1.00
C5       0.61556    0.50262    0.34609   1.00
H2       0.60305    0.47268    0.34656   1.00
H2       0.60461    0.51811    0.31974   1.00
C5       0.60067    0.52445    0.38243   1.00
C5       0.69069    0.51105    0.18075   1.00
C5       0.81281    0.61070    0.31755   1.00
H2       0.71587    0.49088    0.17724   1.00
H2       0.69549    0.53712    0.16184   1.00
H2       0.81091    0.58300    0.33456   1.00
H2       0.78697    0.62895    0.32562   1.00
H2       0.83514    0.69030    0.35024   1.00
H2       0.67965    0.44247    0.13293   1.00
H2       0.67212    0.48763    0.10614   1.00
C2       0.74748    0.39605    0.25091   1.00
C3       0.76596    0.41597    0.21995   1.00
O2       0.77459    0.39674    0.18565   1.00
C3       0.73177    0.41826    0.28198   1.00
H1       0.71834    0.40385    0.30660   1.00
C3a      0.76744    0.45713    0.22017   1.00
H1       0.77970    0.47202    0.19520   1.00
C3b      0.73218    0.45922    0.28151   1.00
C4       0.75003    0.47900    0.25042   1.00
O3       0.68546    0.52167    0.22018   1.00
C5       0.81462    0.38720    0.18435   1.00
H2       0.83321    0.41391    0.18615   1.00
C5       0.82189    0.36674    0.14552   1.00
H2       0.82264    0.36726    0.20877   1.00
H2       0.82416    0.38932    0.12226   1.00
H2       0.79546    0.34907    0.13873   1.00
C5       0.85857    0.34082    0.14597   1.00
H2       0.88410    0.35824    0.15579   1.00
C5       0.86709    0.32453    0.10498   1.00
H2       0.85472    0.31507    0.16565   1.00
C5       0.65372    0.49017    0.16748   1.00
H2       0.62995    0.51215    0.16457   1.00
H2       0.64471    0.46952    0.19092   1.00
C5       0.65982    0.46800    0.12888   1.00
C5       0.62052    0.45225    0.11389   1.00
H2       0.90359    0.69286    0.35783   1.00
H2       0.88453    0.68447    0.40799   1.00
H2       0.90578    0.64323    0.37977   1.00
H2       0.56827    0.53105    0.37889   1.00
H2       0.60525    0.50551    0.40938   1.00
H2       0.61748    0.55293    0.38591   1.00
H2       0.87969    0.29387    0.10763   1.00
H2       0.83888    0.32344    0.08741   1.00
H2       0.88900    0.34423    0.08956   1.00
H2       0.59727    0.45634    0.13732   1.00
H2       0.61166    0.46884    0.08646   1.00
H2       0.62352    0.41990    0.10678   1.00
C5       0.36782    0.32721    0.14944   1.00
H2       0.35255    0.29993    0.14096   1.00
H2       0.38910    0.33319    0.12573   1.00
C5       0.33806    0.36072    0.15259   1.00
C5       0.32877    0.37768    0.11204   1.00
H2       0.34985    0.38434    0.17151   1.00
O3       0.52000    0.31271    0.28290   1.00
C4       0.47900    0.24958    0.25003   1.00
C3c      0.45757    0.26520    0.21879   1.00
H1       0.47275    0.27747    0.19401   1.00
C3d      0.45865    0.23323    0.28179   1.00
C3       0.41646    0.26579    0.21919   1.00
O2       0.39752    0.27714    0.18565   1.00
C3       0.41773    0.23445    0.28261   1.00
H1       0.40343    0.22281    0.30821   1.00
C2       0.39561    0.25052    0.25146   1.00
C5       0.52121    0.31116    0.32406   1.00
H2       0.55162    0.31251    0.33552   1.00
H2       0.50734    0.28387    0.33517   1.00
C5       0.49871    0.34628    0.33953   1.00
H2       0.46863    0.34553    0.32720   1.00
H2       0.51302    0.37335    0.32856   1.00
C5       0.49738    0.34609    0.38444   1.00
H2       0.52732    0.34656    0.39695   1.00
H2       0.48189    0.31974    0.39539   1.00
C5       0.47555    0.38243    0.39933   1.00
C5       0.48895    0.18075    0.30931   1.00
C5       0.38930    0.31755    0.18719   1.00
H2       0.50912    0.17724    0.28413   1.00
H2       0.46288    0.16184    0.30451   1.00
H2       0.41700    0.33456    0.18909   1.00
H2       0.37105    0.32562    0.21303   1.00
H2       0.30970    0.35024    0.16486   1.00
H2       0.55753    0.13293    0.32035   1.00
H2       0.51237    0.10614    0.32788   1.00
C2       0.60395    0.25091    0.25252   1.00
C3       0.58403    0.21995    0.23404   1.00
O2       0.60326    0.18565    0.22541   1.00
C3       0.58174    0.28198    0.26823   1.00
H1       0.59615    0.30660    0.28166   1.00
C3a      0.54287    0.22017    0.23256   1.00
H1       0.52798    0.19520    0.22030   1.00
C3b      0.54078    0.28151    0.26782   1.00
C4       0.52100    0.25042    0.24997   1.00
O3       0.47833    0.22018    0.31454   1.00
C5       0.61280    0.18435    0.18538   1.00
H2       0.58609    0.18615    0.16679   1.00
C5       0.63326    0.14552    0.17811   1.00
H2       0.63274    0.20877    0.17736   1.00
H2       0.61068    0.12226    0.17584   1.00
H2       0.65093    0.13873    0.20454   1.00
C5       0.65918    0.14597    0.14143   1.00
H2       0.64176    0.15579    0.11590   1.00
C5       0.67547    0.10498    0.13291   1.00
H2       0.68493    0.16565    0.14528   1.00
C5       0.50983    0.16748    0.34628   1.00
H2       0.48785    0.16457    0.37005   1.00
H2       0.53048    0.19092    0.35529   1.00
C5       0.53200    0.12888    0.34018   1.00
C5       0.54775    0.11389    0.37948   1.00
H2       0.30714    0.35783    0.09641   1.00
H2       0.31553    0.40799    0.11547   1.00
H2       0.35677    0.37977    0.09422   1.00
H2       0.46895    0.37889    0.43173   1.00
H2       0.49449    0.40938    0.39475   1.00
H2       0.44707    0.38591    0.38252   1.00
H2       0.70613    0.10763    0.12031   1.00
H2       0.67656    0.08741    0.16112   1.00
H2       0.65577    0.08956    0.11100   1.00
H2       0.54366    0.13732    0.40273   1.00
H2       0.53116    0.08646    0.38834   1.00
H2       0.58010    0.10678    0.37648   1.00
C5       1.13218    0.32721    0.35056   1.00
H2       1.14745    0.29993    0.35904   1.00
H2       1.11090    0.33319    0.37427   1.00
C5       1.16194    0.36072    0.34741   1.00
C5       1.17123    0.37768    0.38796   1.00
H2       1.15015    0.38434    0.32849   1.00
O3       0.98000    0.31271    0.21710   1.00
C4       1.02100    0.24958    0.24997   1.00
C3c      1.04243    0.26520    0.28121   1.00
H1       1.02725    0.27747    0.30599   1.00
C3d      1.04135    0.23323    0.21821   1.00
C3       1.08354    0.26579    0.28081   1.00
O2       1.10248    0.27714    0.31435   1.00
C3       1.08227    0.23445    0.21739   1.00
H1       1.09657    0.22281    0.19179   1.00
C2       1.10439    0.25052    0.24854   1.00
C5       0.97879    0.31116    0.17594   1.00
H2       0.94838    0.31251    0.16448   1.00
H2       0.99266    0.28387    0.16483   1.00
C5       1.00129    0.34628    0.16047   1.00
H2       1.03137    0.34553    0.17280   1.00
H2       0.98698    0.37335    0.17144   1.00
C5       1.00262    0.34609    0.11556   1.00
H2       0.97268    0.34656    0.10305   1.00
H2       1.01811    0.31974    0.10461   1.00
C5       1.02445    0.38243    0.10067   1.00
C5       1.01105    0.18075    0.19069   1.00
C5       1.11070    0.31755    0.31281   1.00
H2       0.99088    0.17724    0.21587   1.00
H2       1.03712    0.16184    0.19549   1.00
H2       1.08300    0.33456    0.31091   1.00
H2       1.12895    0.32562    0.28697   1.00
H2       1.19030    0.35024    0.33514   1.00
H2       0.94247    0.13293    0.17965   1.00
H2       0.98763    0.10614    0.17212   1.00
C2       0.89605    0.25091    0.24748   1.00
C3       0.91597    0.21995    0.26596   1.00
O2       0.89674    0.18565    0.27459   1.00
C3       0.91826    0.28198    0.23177   1.00
H1       0.90385    0.30660    0.21834   1.00
C3a      0.95713    0.22017    0.26744   1.00
H1       0.97202    0.19520    0.27970   1.00
C3b      0.95922    0.28151    0.23218   1.00
C4       0.97900    0.25042    0.25003   1.00
O3       1.02167    0.22018    0.18546   1.00
C5       0.88720    0.18435    0.31462   1.00
H2       0.91391    0.18615    0.33321   1.00
C5       0.86674    0.14552    0.32189   1.00
H2       0.86726    0.20877    0.32264   1.00
H2       0.88932    0.12226    0.32416   1.00
H2       0.84907    0.13873    0.29546   1.00
C5       0.84082    0.14597    0.35857   1.00
H2       0.85824    0.15579    0.38410   1.00
C5       0.82453    0.10498    0.36709   1.00
H2       0.81507    0.16565    0.35472   1.00
C5       0.99017    0.16748    0.15372   1.00
H2       1.01215    0.16457    0.12995   1.00
H2       0.96952    0.19092    0.14471   1.00
C5       0.96800    0.12888    0.15982   1.00
C5       0.95225    0.11389    0.12052   1.00
H2       1.19286    0.35783    0.40359   1.00
H2       1.18447    0.40799    0.38453   1.00
H2       1.14323    0.37977    0.40578   1.00
H2       1.03105    0.37889    0.06827   1.00
H2       1.00551    0.40938    0.10525   1.00
H2       1.05293    0.38591    0.11748   1.00
H2       0.79387    0.10763    0.37969   1.00
H2       0.82344    0.08741    0.33888   1.00
H2       0.84423    0.08956    0.38900   1.00
H2       0.95634    0.13732    0.09727   1.00
H2       0.96884    0.08646    0.11166   1.00
H2       0.91990    0.10678    0.12352   1.00
C5       0.64944    -0.13218   0.32721   1.00
H2       0.64096    -0.14745   0.29993   1.00
H2       0.62573    -0.11090   0.33319   1.00
C5       0.65259    -0.16194   0.36072   1.00
C5       0.61204    -0.17123   0.37768   1.00
H2       0.67151    -0.15015   0.38434   1.00
O3       0.78290    0.02000    0.31271   1.00
C4       0.75003    -0.02100   0.24958   1.00
C3c      0.71879    -0.04243   0.26520   1.00
H1       0.69401    -0.02725   0.27747   1.00
C3d      0.78179    -0.04135   0.23323   1.00
C3       0.71919    -0.08354   0.26579   1.00
O2       0.68565    -0.10248   0.27714   1.00
C3       0.78261    -0.08227   0.23445   1.00
H1       0.80821    -0.09657   0.22281   1.00
C2       0.75146    -0.10439   0.25052   1.00
C5       0.82406    0.02121    0.31116   1.00
H2       0.83552    0.05162    0.31251   1.00
H2       0.83517    0.00734    0.28387   1.00
C5       0.83953    -0.00129   0.34628   1.00
H2       0.82720    -0.03137   0.34553   1.00
H2       0.82856    0.01302    0.37335   1.00
C5       0.88444    -0.00262   0.34609   1.00
H2       0.89695    0.02732    0.34656   1.00
H2       0.89539    -0.01811   0.31974   1.00
C5       0.89933    -0.02445   0.38243   1.00
C5       0.80931    -0.01105   0.18075   1.00
C5       0.68719    -0.11070   0.31755   1.00
H2       0.78413    0.00912    0.17724   1.00
H2       0.80451    -0.03712   0.16184   1.00
H2       0.68909    -0.08300   0.33456   1.00
H2       0.71303    -0.12895   0.32562   1.00
H2       0.66486    -0.19030   0.35024   1.00
H2       0.82035    0.05753    0.13293   1.00
H2       0.82788    0.01237    0.10614   1.00
C2       0.75252    0.10395    0.25091   1.00
C3       0.73404    0.08403    0.21995   1.00
O2       0.72541    0.10326    0.18565   1.00
C3       0.76823    0.08174    0.28198   1.00
H1       0.78166    0.09615    0.30660   1.00
C3a      0.73256    0.04287    0.22017   1.00
H1       0.72030    0.02798    0.19520   1.00
C3b      0.76782    0.04078    0.28151   1.00
C4       0.74997    0.02100    0.25042   1.00
O3       0.81454    -0.02167   0.22018   1.00
C5       0.68538    0.11280    0.18435   1.00
H2       0.66679    0.08609    0.18615   1.00
C5       0.67811    0.13326    0.14552   1.00
H2       0.67736    0.13274    0.20877   1.00
H2       0.67584    0.11068    0.12226   1.00
H2       0.70454    0.15093    0.13873   1.00
C5       0.64143    0.15918    0.14597   1.00
H2       0.61590    0.14176    0.15579   1.00
C5       0.63291    0.17547    0.10498   1.00
H2       0.64528    0.18493    0.16565   1.00
C5       0.84628    0.00983    0.16748   1.00
H2       0.87005    -0.01215   0.16457   1.00
H2       0.85529    0.03048    0.19092   1.00
C5       0.84018    0.03200    0.12888   1.00
C5       0.87948    0.04775    0.11389   1.00
H2       0.59641    -0.19286   0.35783   1.00
H2       0.61547    -0.18447   0.40799   1.00
H2       0.59422    -0.14323   0.37977   1.00
H2       0.93173    -0.03105   0.37889   1.00
H2       0.89475    -0.00551   0.40938   1.00
H2       0.88252    -0.05293   0.38591   1.00
H2       0.62031    0.20613    0.10763   1.00
H2       0.66112    0.17656    0.08741   1.00
H2       0.61100    0.15577    0.08956   1.00
H2       0.90273    0.04366    0.13732   1.00
H2       0.88834    0.03116    0.08646   1.00
H2       0.87648    0.08010    0.10678   1.00
C5       0.82721    0.14944    -0.13218   1.00
H2       0.79993    0.14096    -0.14745   1.00
H2       0.83319    0.12573    -0.11090   1.00
C5       0.86072    0.15259    -0.16194   1.00
C5       0.87768    0.11204    -0.17123   1.00
H2       0.88434    0.17151    -0.15015   1.00
O3       0.81271    0.28290    0.02000   1.00
C4       0.74958    0.25003    -0.02100   1.00
C3c      0.76520    0.21879    -0.04243   1.00
H1       0.77747    0.19401    -0.02725   1.00
C3d      0.73323    0.28179    -0.04135   1.00
C3       0.76579    0.21919    -0.08354   1.00
O2       0.77714    0.18565    -0.10248   1.00
C3       0.73445    0.28261    -0.08227   1.00
H1       0.72281    0.30821    -0.09657   1.00
C2       0.75052    0.25146    -0.10439   1.00
C5       0.81116    0.32406    0.02121   1.00
H2       0.81251    0.33552    0.05162   1.00
H2       0.78387    0.33517    0.00734   1.00
C5       0.84628    0.33953    -0.00129   1.00
H2       0.84553    0.32720    -0.03137   1.00
H2       0.87335    0.32856    0.01302   1.00
C5       0.84609    0.38444    -0.00262   1.00
H2       0.84656    0.39695    0.02732   1.00
H2       0.81974    0.39539    -0.01811   1.00
C5       0.88243    0.39933    -0.02445   1.00
C5       0.68075    0.30931    -0.01105   1.00
C5       0.81755    0.18719    -0.11070   1.00
H2       0.67724    0.28413    0.00912   1.00
H2       0.66184    0.30451    -0.03712   1.00
H2       0.83456    0.18909    -0.08300   1.00
H2       0.82562    0.21303    -0.12895   1.00
H2       0.85024    0.16486    -0.19030   1.00
H2       0.63293    0.32035    0.05753   1.00
H2       0.60614    0.32788    0.01237   1.00
C2       0.75091    0.25252    0.10395   1.00
C3       0.71995    0.23404    0.08403   1.00
O2       0.68565    0.22541    0.10326   1.00
C3       0.78198    0.26823    0.08174   1.00
H1       0.80660    0.28166    0.09615   1.00
C3a      0.72017    0.23256    0.04287   1.00
H1       0.69520    0.22030    0.02798   1.00
C3b      0.78151    0.26782    0.04078   1.00
C4       0.75042    0.24997    0.02100   1.00
O3       0.72018    0.31454    -0.02167   1.00
C5       0.68435    0.18538    0.11280   1.00
H2       0.68615    0.16679    0.08609   1.00
C5       0.64552    0.17811    0.13326   1.00
H2       0.70877    0.17736    0.13274   1.00
H2       0.62226    0.17584    0.11068   1.00
H2       0.63873    0.20454    0.15093   1.00
C5       0.64597    0.14143    0.15918   1.00
H2       0.65579    0.11590    0.14176   1.00
C5       0.60498    0.13291    0.17547   1.00
H2       0.66565    0.14528    0.18493   1.00
C5       0.66748    0.34628    0.00983   1.00
H2       0.66457    0.37005    -0.01215   1.00
H2       0.69092    0.35529    0.03048   1.00
C5       0.62888    0.34018    0.03200   1.00
C5       0.61389    0.37948    0.04775   1.00
H2       0.85783    0.09641    -0.19286   1.00
H2       0.90799    0.11547    -0.18447   1.00
H2       0.87977    0.09422    -0.14323   1.00
H2       0.87889    0.43173    -0.03105   1.00
H2       0.90938    0.39475    -0.00551   1.00
H2       0.88591    0.38252    -0.05293   1.00
H2       0.60763    0.12031    0.20613   1.00
H2       0.58741    0.16112    0.17656   1.00
H2       0.58956    0.11100    0.15577   1.00
H2       0.63732    0.40273    0.04366   1.00
H2       0.58646    0.38834    0.03116   1.00
H2       0.60678    0.37648    0.08010   1.00
C5       1.07721    1.10056    1.38218   1.00
H2       1.04993    1.10904    1.39745   1.00
H2       1.08319    1.12427    1.36090   1.00
C5       1.11072    1.09741    1.41194   1.00
C5       1.12768    1.13796    1.42123   1.00
H2       1.13434    1.07849    1.40015   1.00
O3       1.06271    0.96710    1.23000   1.00
C4       0.99958    0.99997    1.27100   1.00
C3c      1.01520    1.03121    1.29243   1.00
H1       1.02747    1.05599    1.27725   1.00
C3d      0.98323    0.96821    1.29135   1.00
C3       1.01579    1.03081    1.33354   1.00
O2       1.02714    1.06435    1.35248   1.00
C3       0.98445    0.96739    1.33227   1.00
H1       0.97281    0.94179    1.34657   1.00
C2       1.00052    0.99854    1.35439   1.00
C5       1.06116    0.92594    1.22879   1.00
H2       1.06251    0.91448    1.19838   1.00
H2       1.03387    0.91483    1.24266   1.00
C5       1.09628    0.91047    1.25129   1.00
H2       1.09553    0.92280    1.28137   1.00
H2       1.12335    0.92144    1.23698   1.00
C5       1.09609    0.86556    1.25262   1.00
H2       1.09656    0.85305    1.22268   1.00
H2       1.06974    0.85461    1.26811   1.00
C5       1.13243    0.85067    1.27445   1.00
C5       0.93075    0.94069    1.26105   1.00
C5       1.06755    1.06281    1.36070   1.00
H2       0.92724    0.96587    1.24088   1.00
H2       0.91184    0.94549    1.28712   1.00
H2       1.08456    1.06091    1.33300   1.00
H2       1.07562    1.03697    1.37895   1.00
H2       1.10024    1.08514    1.44030   1.00
H2       0.88293    0.92965    1.19247   1.00
H2       0.85614    0.92212    1.23763   1.00
C2       1.00091    0.99748    1.14605   1.00
C3       0.96995    1.01596    1.16597   1.00
O2       0.93565    1.02459    1.14674   1.00
C3       1.03198    0.98177    1.16826   1.00
H1       1.05660    0.96834    1.15385   1.00
C3a      0.97017    1.01744    1.20713   1.00
H1       0.94520    1.02970    1.22202   1.00
C3b      1.03151    0.98218    1.20922   1.00
C4       1.00042    1.00003    1.22900   1.00
O3       0.97018    0.93546    1.27167   1.00
C5       0.93435    1.06462    1.13720   1.00
H2       0.93615    1.08321    1.16391   1.00
C5       0.89552    1.07189    1.11674   1.00
H2       0.95877    1.07264    1.11726   1.00
H2       0.87226    1.07416    1.13932   1.00
H2       0.88873    1.04546    1.09907   1.00
C5       0.89597    1.10857    1.09082   1.00
H2       0.90579    1.13410    1.10824   1.00
C5       0.85498    1.11709    1.07453   1.00
H2       0.91565    1.10472    1.06507   1.00
C5       0.91748    0.90372    1.24017   1.00
H2       0.91457    0.87995    1.26215   1.00
H2       0.94092    0.89471    1.21952   1.00
C5       0.87888    0.90982    1.21800   1.00
C5       0.86389    0.87052    1.20225   1.00
H2       1.10783    1.15359    1.44286   1.00
H2       1.15799    1.13453    1.43447   1.00
H2       1.12977    1.15578    1.39323   1.00
H2       1.12889    0.81827    1.28105   1.00
H2       1.15938    0.85525    1.25551   1.00
H2       1.13591    0.86748    1.30293   1.00
H2       0.85763    1.12969    1.04387   1.00
H2       0.83741    1.08888    1.07344   1.00
H2       0.83956    1.13900    1.09423   1.00
H2       0.88732    0.84727    1.20634   1.00
H2       0.83646    0.86166    1.21884   1.00
H2       0.85678    0.87352    1.16990   1.00
C5       1.10056    1.38218    1.07721   1.00
H2       1.10904    1.39745    1.04993   1.00
H2       1.12427    1.36090    1.08319   1.00
C5       1.09741    1.41194    1.11072   1.00
C5       1.13796    1.42123    1.12768   1.00
H2       1.07849    1.40015    1.13434   1.00
O3       0.96710    1.23000    1.06271   1.00
C4       0.99997    1.27100    0.99958   1.00
C3c      1.03121    1.29243    1.01520   1.00
H1       1.05599    1.27725    1.02747   1.00
C3d      0.96821    1.29135    0.98323   1.00
C3       1.03081    1.33354    1.01579   1.00
O2       1.06435    1.35248    1.02714   1.00
C3       0.96739    1.33227    0.98445   1.00
H1       0.94179    1.34657    0.97281   1.00
C2       0.99854    1.35439    1.00052   1.00
C5       0.92594    1.22879    1.06116   1.00
H2       0.91448    1.19838    1.06251   1.00
H2       0.91483    1.24266    1.03387   1.00
C5       0.91047    1.25129    1.09628   1.00
H2       0.92280    1.28137    1.09553   1.00
H2       0.92144    1.23698    1.12335   1.00
C5       0.86556    1.25262    1.09609   1.00
H2       0.85305    1.22268    1.09656   1.00
H2       0.85461    1.26811    1.06974   1.00
C5       0.85067    1.27445    1.13243   1.00
C5       0.94069    1.26105    0.93075   1.00
C5       1.06281    1.36070    1.06755   1.00
H2       0.96587    1.24088    0.92724   1.00
H2       0.94549    1.28712    0.91184   1.00
H2       1.06091    1.33300    1.08456   1.00
H2       1.03697    1.37895    1.07562   1.00
H2       1.08514    1.44030    1.10024   1.00
H2       0.92965    1.19247    0.88293   1.00
H2       0.92212    1.23763    0.85614   1.00
C2       0.99748    1.14605    1.00091   1.00
C3       1.01596    1.16597    0.96995   1.00
O2       1.02459    1.14674    0.93565   1.00
C3       0.98177    1.16826    1.03198   1.00
H1       0.96834    1.15385    1.05660   1.00
C3a      1.01744    1.20713    0.97017   1.00
H1       1.02970    1.22202    0.94520   1.00
C3b      0.98218    1.20922    1.03151   1.00
C4       1.00003    1.22900    1.00042   1.00
O3       0.93546    1.27167    0.97018   1.00
C5       1.06462    1.13720    0.93435   1.00
H2       1.08321    1.16391    0.93615   1.00
C5       1.07189    1.11674    0.89552   1.00
H2       1.07264    1.11726    0.95877   1.00
H2       1.07416    1.13932    0.87226   1.00
H2       1.04546    1.09907    0.88873   1.00
C5       1.10857    1.09082    0.89597   1.00
H2       1.13410    1.10824    0.90579   1.00
C5       1.11709    1.07453    0.85498   1.00
H2       1.10472    1.06507    0.91565   1.00
C5       0.90372    1.24017    0.91748   1.00
H2       0.87995    1.26215    0.91457   1.00
H2       0.89471    1.21952    0.94092   1.00
C5       0.90982    1.21800    0.87888   1.00
C5       0.87052    1.20225    0.86389   1.00
H2       1.15359    1.44286    1.10783   1.00
H2       1.13453    1.43447    1.15799   1.00
H2       1.15578    1.39323    1.12977   1.00
H2       0.81827    1.28105    1.12889   1.00
H2       0.85525    1.25551    1.15938   1.00
H2       0.86748    1.30293    1.13591   1.00
H2       1.12969    1.04387    0.85763   1.00
H2       1.08888    1.07344    0.83741   1.00
H2       1.13900    1.09423    0.83956   1.00
H2       0.84727    1.20634    0.88732   1.00
H2       0.86166    1.21884    0.83646   1.00
H2       0.87352    1.16990    0.85678   1.00
C5       0.61782    1.07721    0.89944   1.00
H2       0.60255    1.04993    0.89096   1.00
H2       0.63910    1.08319    0.87573   1.00
C5       0.58806    1.11072    0.90259   1.00
C5       0.57877    1.12768    0.86204   1.00
H2       0.59985    1.13434    0.92151   1.00
O3       0.77000    1.06271    1.03290   1.00
C4       0.72900    0.99958    1.00003   1.00
C3c      0.70757    1.01520    0.96879   1.00
H1       0.72275    1.02747    0.94401   1.00
C3d      0.70865    0.98323    1.03179   1.00
C3       0.66646    1.01579    0.96919   1.00
O2       0.64752    1.02714    0.93565   1.00
C3       0.66773    0.98445    1.03261   1.00
H1       0.65343    0.97281    1.05821   1.00
C2       0.64561    1.00052    1.00146   1.00
C5       0.77121    1.06116    1.07406   1.00
H2       0.80162    1.06251    1.08552   1.00
H2       0.75734    1.03387    1.08517   1.00
C5       0.74871    1.09628    1.08953   1.00
H2       0.71863    1.09553    1.07720   1.00
H2       0.76302    1.12335    1.07856   1.00
C5       0.74738    1.09609    1.13444   1.00
H2       0.77732    1.09656    1.14695   1.00
H2       0.73189    1.06974    1.14539   1.00
C5       0.72555    1.13243    1.14933   1.00
C5       0.73895    0.93075    1.05931   1.00
C5       0.63930    1.06755    0.93719   1.00
H2       0.75912    0.92724    1.03413   1.00
H2       0.71288    0.91184    1.05451   1.00
H2       0.66700    1.08456    0.93909   1.00
H2       0.62105    1.07562    0.96303   1.00
H2       0.55970    1.10024    0.91486   1.00
H2       0.80753    0.88293    1.07035   1.00
H2       0.76237    0.85614    1.07788   1.00
C2       0.85395    1.00091    1.00252   1.00
C3       0.83403    0.96995    0.98404   1.00
O2       0.85326    0.93565    0.97541   1.00
C3       0.83174    1.03198    1.01823   1.00
H1       0.84615    1.05660    1.03166   1.00
C3a      0.79287    0.97017    0.98256   1.00
H1       0.77798    0.94520    0.97030   1.00
C3b      0.79078    1.03151    1.01782   1.00
C4       0.77100    1.00042    0.99997   1.00
O3       0.72833    0.97018    1.06454   1.00
C5       0.86280    0.93435    0.93538   1.00
H2       0.83609    0.93615    0.91679   1.00
C5       0.88326    0.89552    0.92811   1.00
H2       0.88274    0.95877    0.92736   1.00
H2       0.86068    0.87226    0.92584   1.00
H2       0.90093    0.88873    0.95454   1.00
C5       0.90918    0.89597    0.89143   1.00
H2       0.89176    0.90579    0.86590   1.00
C5       0.92547    0.85498    0.88291   1.00
H2       0.93493    0.91565    0.89528   1.00
C5       0.75983    0.91748    1.09628   1.00
H2       0.73785    0.91457    1.12005   1.00
H2       0.78048    0.94092    1.10529   1.00
C5       0.78200    0.87888    1.09018   1.00
C5       0.79775    0.86389    1.12948   1.00
H2       0.55714    1.10783    0.84641   1.00
H2       0.56553    1.15799    0.86547   1.00
H2       0.60677    1.12977    0.84422   1.00
H2       0.71895    1.12889    1.18173   1.00
H2       0.74449    1.15938    1.14475   1.00
H2       0.69707    1.13591    1.13252   1.00
H2       0.95613    0.85763    0.87031   1.00
H2       0.92656    0.83741    0.91112   1.00
H2       0.90577    0.83956    0.86100   1.00
H2       0.79366    0.88732    1.15273   1.00
H2       0.78116    0.83646    1.13834   1.00
H2       0.83010    0.85678    1.12648   1.00
C5       1.38218    1.07721    1.10056   1.00
H2       1.39745    1.04993    1.10904   1.00
H2       1.36090    1.08319    1.12427   1.00
C5       1.41194    1.11072    1.09741   1.00
C5       1.42123    1.12768    1.13796   1.00
H2       1.40015    1.13434    1.07849   1.00
O3       1.23000    1.06271    0.96710   1.00
C4       1.27100    0.99958    0.99997   1.00
C3c      1.29243    1.01520    1.03121   1.00
H1       1.27725    1.02747    1.05599   1.00
C3d      1.29135    0.98323    0.96821   1.00
C3       1.33354    1.01579    1.03081   1.00
O2       1.35248    1.02714    1.06435   1.00
C3       1.33227    0.98445    0.96739   1.00
H1       1.34657    0.97281    0.94179   1.00
C2       1.35439    1.00052    0.99854   1.00
C5       1.22879    1.06116    0.92594   1.00
H2       1.19838    1.06251    0.91448   1.00
H2       1.24266    1.03387    0.91483   1.00
C5       1.25129    1.09628    0.91047   1.00
H2       1.28137    1.09553    0.92280   1.00
H2       1.23698    1.12335    0.92144   1.00
C5       1.25262    1.09609    0.86556   1.00
H2       1.22268    1.09656    0.85305   1.00
H2       1.26811    1.06974    0.85461   1.00
C5       1.27445    1.13243    0.85067   1.00
C5       1.26105    0.93075    0.94069   1.00
C5       1.36070    1.06755    1.06281   1.00
H2       1.24088    0.92724    0.96587   1.00
H2       1.28712    0.91184    0.94549   1.00
H2       1.33300    1.08456    1.06091   1.00
H2       1.37895    1.07562    1.03697   1.00
H2       1.44030    1.10024    1.08514   1.00
H2       1.19247    0.88293    0.92965   1.00
H2       1.23763    0.85614    0.92212   1.00
C2       1.14605    1.00091    0.99748   1.00
C3       1.16597    0.96995    1.01596   1.00
O2       1.14674    0.93565    1.02459   1.00
C3       1.16826    1.03198    0.98177   1.00
H1       1.15385    1.05660    0.96834   1.00
C3a      1.20713    0.97017    1.01744   1.00
H1       1.22202    0.94520    1.02970   1.00
C3b      1.20922    1.03151    0.98218   1.00
C4       1.22900    1.00042    1.00003   1.00
O3       1.27167    0.97018    0.93546   1.00
C5       1.13720    0.93435    1.06462   1.00
H2       1.16391    0.93615    1.08321   1.00
C5       1.11674    0.89552    1.07189   1.00
H2       1.11726    0.95877    1.07264   1.00
H2       1.13932    0.87226    1.07416   1.00
H2       1.09907    0.88873    1.04546   1.00
C5       1.09082    0.89597    1.10857   1.00
H2       1.10824    0.90579    1.13410   1.00
C5       1.07453    0.85498    1.11709   1.00
H2       1.06507    0.91565    1.10472   1.00
C5       1.24017    0.91748    0.90372   1.00
H2       1.26215    0.91457    0.87995   1.00
H2       1.21952    0.94092    0.89471   1.00
C5       1.21800    0.87888    0.90982   1.00
C5       1.20225    0.86389    0.87052   1.00
H2       1.44286    1.10783    1.15359   1.00
H2       1.43447    1.15799    1.13453   1.00
H2       1.39323    1.12977    1.15578   1.00
H2       1.28105    1.12889    0.81827   1.00
H2       1.25551    1.15938    0.85525   1.00
H2       1.30293    1.13591    0.86748   1.00
H2       1.04387    0.85763    1.12969   1.00
H2       1.07344    0.83741    1.08888   1.00
H2       1.09423    0.83956    1.13900   1.00
H2       1.20634    0.88732    0.84727   1.00
H2       1.21884    0.83646    0.86166   1.00
H2       1.16990    0.85678    0.87352   1.00
C5       0.89944    0.61782    1.07721   1.00
H2       0.89096    0.60255    1.04993   1.00
H2       0.87573    0.63910    1.08319   1.00
C5       0.90259    0.58806    1.11072   1.00
C5       0.86204    0.57877    1.12768   1.00
H2       0.92151    0.59985    1.13434   1.00
O3       1.03290    0.77000    1.06271   1.00
C4       1.00003    0.72900    0.99958   1.00
C3c      0.96879    0.70757    1.01520   1.00
H1       0.94401    0.72275    1.02747   1.00
C3d      1.03179    0.70865    0.98323   1.00
C3       0.96919    0.66646    1.01579   1.00
O2       0.93565    0.64752    1.02714   1.00
C3       1.03261    0.66773    0.98445   1.00
H1       1.05821    0.65343    0.97281   1.00
C2       1.00146    0.64561    1.00052   1.00
C5       1.07406    0.77121    1.06116   1.00
H2       1.08552    0.80162    1.06251   1.00
H2       1.08517    0.75734    1.03387   1.00
C5       1.08953    0.74871    1.09628   1.00
H2       1.07720    0.71863    1.09553   1.00
H2       1.07856    0.76302    1.12335   1.00
C5       1.13444    0.74738    1.09609   1.00
H2       1.14695    0.77732    1.09656   1.00
H2       1.14539    0.73189    1.06974   1.00
C5       1.14933    0.72555    1.13243   1.00
C5       1.05931    0.73895    0.93075   1.00
C5       0.93719    0.63930    1.06755   1.00
H2       1.03413    0.75912    0.92724   1.00
H2       1.05451    0.71288    0.91184   1.00
H2       0.93909    0.66700    1.08456   1.00
H2       0.96303    0.62105    1.07562   1.00
H2       0.91486    0.55970    1.10024   1.00
H2       1.07035    0.80753    0.88293   1.00
H2       1.07788    0.76237    0.85614   1.00
C2       1.00252    0.85395    1.00091   1.00
C3       0.98404    0.83403    0.96995   1.00
O2       0.97541    0.85326    0.93565   1.00
C3       1.01823    0.83174    1.03198   1.00
H1       1.03166    0.84615    1.05660   1.00
C3a      0.98256    0.79287    0.97017   1.00
H1       0.97030    0.77798    0.94520   1.00
C3b      1.01782    0.79078    1.03151   1.00
C4       0.99997    0.77100    1.00042   1.00
O3       1.06454    0.72833    0.97018   1.00
C5       0.93538    0.86280    0.93435   1.00
H2       0.91679    0.83609    0.93615   1.00
C5       0.92811    0.88326    0.89552   1.00
H2       0.92736    0.88274    0.95877   1.00
H2       0.92584    0.86068    0.87226   1.00
H2       0.95454    0.90093    0.88873   1.00
C5       0.89143    0.90918    0.89597   1.00
H2       0.86590    0.89176    0.90579   1.00
C5       0.88291    0.92547    0.85498   1.00
H2       0.89528    0.93493    0.91565   1.00
C5       1.09628    0.75983    0.91748   1.00
H2       1.12005    0.73785    0.91457   1.00
H2       1.10529    0.78048    0.94092   1.00
C5       1.09018    0.78200    0.87888   1.00
C5       1.12948    0.79775    0.86389   1.00
H2       0.84641    0.55714    1.10783   1.00
H2       0.86547    0.56553    1.15799   1.00
H2       0.84422    0.60677    1.12977   1.00
H2       1.18173    0.71895    1.12889   1.00
H2       1.14475    0.74449    1.15938   1.00
H2       1.13252    0.69707    1.13591   1.00
H2       0.87031    0.95613    0.85763   1.00
H2       0.91112    0.92656    0.83741   1.00
H2       0.86100    0.90577    0.83956   1.00
H2       1.15273    0.79366    0.88732   1.00
H2       1.13834    0.78116    0.83646   1.00
H2       1.12648    0.83010    0.85678   1.00
C5       1.07721    0.89944    0.61782   1.00
H2       1.04993    0.89096    0.60255   1.00
H2       1.08319    0.87573    0.63910   1.00
C5       1.11072    0.90259    0.58806   1.00
C5       1.12768    0.86204    0.57877   1.00
H2       1.13434    0.92151    0.59985   1.00
O3       1.06271    1.03290    0.77000   1.00
C4       0.99958    1.00003    0.72900   1.00
C3c      1.01520    0.96879    0.70757   1.00
H1       1.02747    0.94401    0.72275   1.00
C3d      0.98323    1.03179    0.70865   1.00
C3       1.01579    0.96919    0.66646   1.00
O2       1.02714    0.93565    0.64752   1.00
C3       0.98445    1.03261    0.66773   1.00
H1       0.97281    1.05821    0.65343   1.00
C2       1.00052    1.00146    0.64561   1.00
C5       1.06116    1.07406    0.77121   1.00
H2       1.06251    1.08552    0.80162   1.00
H2       1.03387    1.08517    0.75734   1.00
C5       1.09628    1.08953    0.74871   1.00
H2       1.09553    1.07720    0.71863   1.00
H2       1.12335    1.07856    0.76302   1.00
C5       1.09609    1.13444    0.74738   1.00
H2       1.09656    1.14695    0.77732   1.00
H2       1.06974    1.14539    0.73189   1.00
C5       1.13243    1.14933    0.72555   1.00
C5       0.93075    1.05931    0.73895   1.00
C5       1.06755    0.93719    0.63930   1.00
H2       0.92724    1.03413    0.75912   1.00
H2       0.91184    1.05451    0.71288   1.00
H2       1.08456    0.93909    0.66700   1.00
H2       1.07562    0.96303    0.62105   1.00
H2       1.10024    0.91486    0.55970   1.00
H2       0.88293    1.07035    0.80753   1.00
H2       0.85614    1.07788    0.76237   1.00
C2       1.00091    1.00252    0.85395   1.00
C3       0.96995    0.98404    0.83403   1.00
O2       0.93565    0.97541    0.85326   1.00
C3       1.03198    1.01823    0.83174   1.00
H1       1.05660    1.03166    0.84615   1.00
C3a      0.97017    0.98256    0.79287   1.00
H1       0.94520    0.97030    0.77798   1.00
C3b      1.03151    1.01782    0.79078   1.00
C4       1.00042    0.99997    0.77100   1.00
O3       0.97018    1.06454    0.72833   1.00
C5       0.93435    0.93538    0.86280   1.00
H2       0.93615    0.91679    0.83609   1.00
C5       0.89552    0.92811    0.88326   1.00
H2       0.95877    0.92736    0.88274   1.00
H2       0.87226    0.92584    0.86068   1.00
H2       0.88873    0.95454    0.90093   1.00
C5       0.89597    0.89143    0.90918   1.00
H2       0.90579    0.86590    0.89176   1.00
C5       0.85498    0.88291    0.92547   1.00
H2       0.91565    0.89528    0.93493   1.00
C5       0.91748    1.09628    0.75983   1.00
H2       0.91457    1.12005    0.73785   1.00
H2       0.94092    1.10529    0.78048   1.00
C5       0.87888    1.09018    0.78200   1.00
C5       0.86389    1.12948    0.79775   1.00
H2       1.10783    0.84641    0.55714   1.00
H2       1.15799    0.86547    0.56553   1.00
H2       1.12977    0.84422    0.60677   1.00
H2       1.12889    1.18173    0.71895   1.00
H2       1.15938    1.14475    0.74449   1.00
H2       1.13591    1.13252    0.69707   1.00
H2       0.85763    0.87031    0.95613   1.00
H2       0.83741    0.91112    0.92656   1.00
H2       0.83956    0.86100    0.90577   1.00
H2       0.88732    1.15273    0.79366   1.00
H2       0.83646    1.13834    0.78116   1.00
H2       0.85678    1.12648    0.83010   1.00
C5       0.57721    0.60056    1.38218   1.00
H2       0.54993    0.60904    1.39745   1.00
H2       0.58319    0.62427    1.36090   1.00
C5       0.61072    0.59741    1.41194   1.00
C5       0.62768    0.63796    1.42123   1.00
H2       0.63434    0.57849    1.40015   1.00
O3       0.56271    0.46710    1.23000   1.00
C4       0.49958    0.49997    1.27100   1.00
C3c      0.51520    0.53121    1.29243   1.00
H1       0.52747    0.55599    1.27725   1.00
C3d      0.48323    0.46821    1.29135   1.00
C3       0.51579    0.53081    1.33354   1.00
O2       0.52714    0.56435    1.35248   1.00
C3       0.48445    0.46739    1.33227   1.00
H1       0.47281    0.44179    1.34657   1.00
C2       0.50052    0.49854    1.35439   1.00
C5       0.56116    0.42594    1.22879   1.00
H2       0.56251    0.41448    1.19838   1.00
H2       0.53387    0.41483    1.24266   1.00
C5       0.59628    0.41047    1.25129   1.00
H2       0.59553    0.42280    1.28137   1.00
H2       0.62335    0.42144    1.23698   1.00
C5       0.59609    0.36556    1.25262   1.00
H2       0.59656    0.35305    1.22268   1.00
H2       0.56974    0.35461    1.26811   1.00
C5       0.63243    0.35067    1.27445   1.00
C5       0.43075    0.44069    1.26105   1.00
C5       0.56755    0.56281    1.36070   1.00
H2       0.42724    0.46587    1.24088   1.00
H2       0.41184    0.44549    1.28712   1.00
H2       0.58456    0.56091    1.33300   1.00
H2       0.57562    0.53697    1.37895   1.00
H2       0.60024    0.58514    1.44030   1.00
H2       0.38293    0.42965    1.19247   1.00
H2       0.35614    0.42212    1.23763   1.00
C2       0.50091    0.49748    1.14605   1.00
C3       0.46995    0.51596    1.16597   1.00
O2       0.43565    0.52459    1.14674   1.00
C3       0.53198    0.48177    1.16826   1.00
H1       0.55660    0.46834    1.15385   1.00
C3a      0.47017    0.51744    1.20713   1.00
H1       0.44520    0.52970    1.22202   1.00
C3b      0.53151    0.48218    1.20922   1.00
C4       0.50042    0.50003    1.22900   1.00
O3       0.47018    0.43546    1.27167   1.00
C5       0.43435    0.56462    1.13720   1.00
H2       0.43615    0.58321    1.16391   1.00
C5       0.39552    0.57189    1.11674   1.00
H2       0.45877    0.57264    1.11726   1.00
H2       0.37226    0.57416    1.13932   1.00
H2       0.38873    0.54546    1.09907   1.00
C5       0.39597    0.60857    1.09082   1.00
H2       0.40579    0.63410    1.10824   1.00
C5       0.35498    0.61709    1.07453   1.00
H2       0.41565    0.60472    1.06507   1.00
C5       0.41748    0.40372    1.24017   1.00
H2       0.41457    0.37995    1.26215   1.00
H2       0.44092    0.39471    1.21952   1.00
C5       0.37888    0.40982    1.21800   1.00
C5       0.36389    0.37052    1.20225   1.00
H2       0.60783    0.65359    1.44286   1.00
H2       0.65799    0.63453    1.43447   1.00
H2       0.62977    0.65578    1.39323   1.00
H2       0.62889    0.31827    1.28105   1.00
H2       0.65938    0.35525    1.25551   1.00
H2       0.63591    0.36748    1.30293   1.00
H2       0.35763    0.62969    1.04387   1.00
H2       0.33741    0.58888    1.07344   1.00
H2       0.33956    0.63900    1.09423   1.00
H2       0.38732    0.34727    1.20634   1.00
H2       0.33646    0.36166    1.21884   1.00
H2       0.35678    0.37352    1.16990   1.00
C5       0.60056    0.88218    1.07721   1.00
H2       0.60904    0.89745    1.04993   1.00
H2       0.62427    0.86090    1.08319   1.00
C5       0.59741    0.91194    1.11072   1.00
C5       0.63796    0.92123    1.12768   1.00
H2       0.57849    0.90015    1.13434   1.00
O3       0.46710    0.73000    1.06271   1.00
C4       0.49997    0.77100    0.99958   1.00
C3c      0.53121    0.79243    1.01520   1.00
H1       0.55599    0.77725    1.02747   1.00
C3d      0.46821    0.79135    0.98323   1.00
C3       0.53081    0.83354    1.01579   1.00
O2       0.56435    0.85248    1.02714   1.00
C3       0.46739    0.83227    0.98445   1.00
H1       0.44179    0.84657    0.97281   1.00
C2       0.49854    0.85439    1.00052   1.00
C5       0.42594    0.72879    1.06116   1.00
H2       0.41448    0.69838    1.06251   1.00
H2       0.41483    0.74266    1.03387   1.00
C5       0.41047    0.75129    1.09628   1.00
H2       0.42280    0.78137    1.09553   1.00
H2       0.42144    0.73698    1.12335   1.00
C5       0.36556    0.75262    1.09609   1.00
H2       0.35305    0.72268    1.09656   1.00
H2       0.35461    0.76811    1.06974   1.00
C5       0.35067    0.77445    1.13243   1.00
C5       0.44069    0.76105    0.93075   1.00
C5       0.56281    0.86070    1.06755   1.00
H2       0.46587    0.74088    0.92724   1.00
H2       0.44549    0.78712    0.91184   1.00
H2       0.56091    0.83300    1.08456   1.00
H2       0.53697    0.87895    1.07562   1.00
H2       0.58514    0.94030    1.10024   1.00
H2       0.42965    0.69247    0.88293   1.00
H2       0.42212    0.73763    0.85614   1.00
C2       0.49748    0.64605    1.00091   1.00
C3       0.51596    0.66597    0.96995   1.00
O2       0.52459    0.64674    0.93565   1.00
C3       0.48177    0.66826    1.03198   1.00
H1       0.46834    0.65385    1.05660   1.00
C3a      0.51744    0.70713    0.97017   1.00
H1       0.52970    0.72202    0.94520   1.00
C3b      0.48218    0.70922    1.03151   1.00
C4       0.50003    0.72900    1.00042   1.00
O3       0.43546    0.77167    0.97018   1.00
C5       0.56462    0.63720    0.93435   1.00
H2       0.58321    0.66391    0.93615   1.00
C5       0.57189    0.61674    0.89552   1.00
H2       0.57264    0.61726    0.95877   1.00
H2       0.57416    0.63932    0.87226   1.00
H2       0.54546    0.59907    0.88873   1.00
C5       0.60857    0.59082    0.89597   1.00
H2       0.63410    0.60824    0.90579   1.00
C5       0.61709    0.57453    0.85498   1.00
H2       0.60472    0.56507    0.91565   1.00
C5       0.40372    0.74017    0.91748   1.00
H2       0.37995    0.76215    0.91457   1.00
H2       0.39471    0.71952    0.94092   1.00
C5       0.40982    0.71800    0.87888   1.00
C5       0.37052    0.70225    0.86389   1.00
H2       0.65359    0.94286    1.10783   1.00
H2       0.63453    0.93447    1.15799   1.00
H2       0.65578    0.89323    1.12977   1.00
H2       0.31827    0.78105    1.12889   1.00
H2       0.35525    0.75551    1.15938   1.00
H2       0.36748    0.80293    1.13591   1.00
H2       0.62969    0.54387    0.85763   1.00
H2       0.58888    0.57344    0.83741   1.00
H2       0.63900    0.59423    0.83956   1.00
H2       0.34727    0.70634    0.88732   1.00
H2       0.36166    0.71884    0.83646   1.00
H2       0.37352    0.66990    0.85678   1.00
C5       0.11782    0.57721    0.89944   1.00
H2       0.10255    0.54993    0.89096   1.00
H2       0.13910    0.58319    0.87573   1.00
C5       0.08806    0.61072    0.90259   1.00
C5       0.07877    0.62768    0.86204   1.00
H2       0.09985    0.63434    0.92151   1.00
O3       0.27000    0.56271    1.03290   1.00
C4       0.22900    0.49958    1.00003   1.00
C3c      0.20757    0.51520    0.96879   1.00
H1       0.22275    0.52747    0.94401   1.00
C3d      0.20865    0.48323    1.03179   1.00
C3       0.16646    0.51579    0.96919   1.00
O2       0.14752    0.52714    0.93565   1.00
C3       0.16773    0.48445    1.03261   1.00
H1       0.15343    0.47281    1.05821   1.00
C2       0.14561    0.50052    1.00146   1.00
C5       0.27121    0.56116    1.07406   1.00
H2       0.30162    0.56251    1.08552   1.00
H2       0.25734    0.53387    1.08517   1.00
C5       0.24871    0.59628    1.08953   1.00
H2       0.21863    0.59553    1.07720   1.00
H2       0.26302    0.62335    1.07856   1.00
C5       0.24738    0.59609    1.13444   1.00
H2       0.27732    0.59656    1.14695   1.00
H2       0.23189    0.56974    1.14539   1.00
C5       0.22555    0.63243    1.14933   1.00
C5       0.23895    0.43075    1.05931   1.00
C5       0.13930    0.56755    0.93719   1.00
H2       0.25912    0.42724    1.03413   1.00
H2       0.21288    0.41184    1.05451   1.00
H2       0.16700    0.58456    0.93909   1.00
H2       0.12105    0.57562    0.96303   1.00
H2       0.05970    0.60024    0.91486   1.00
H2       0.30753    0.38293    1.07035   1.00
H2       0.26237    0.35614    1.07788   1.00
C2       0.35395    0.50091    1.00252   1.00
C3       0.33403    0.46995    0.98404   1.00
O2       0.35326    0.43565    0.97541   1.00
C3       0.33174    0.53198    1.01823   1.00
H1       0.34615    0.55660    1.03166   1.00
C3a      0.29287    0.47017    0.98256   1.00
H1       0.27798    0.44520    0.97030   1.00
C3b      0.29078    0.53151    1.01782   1.00
C4       0.27100    0.50042    0.99997   1.00
O3       0.22833    0.47018    1.06454   1.00
C5       0.36280    0.43435    0.93538   1.00
H2       0.33609    0.43615    0.91679   1.00
C5       0.38326    0.39552    0.92811   1.00
H2       0.38274    0.45877    0.92736   1.00
H2       0.36068    0.37226    0.92584   1.00
H2       0.40093    0.38873    0.95454   1.00
C5       0.40918    0.39597    0.89143   1.00
H2       0.39176    0.40579    0.86590   1.00
C5       0.42547    0.35498    0.88291   1.00
H2       0.43493    0.41565    0.89528   1.00
C5       0.25983    0.41748    1.09628   1.00
H2       0.23785    0.41457    1.12005   1.00
H2       0.28048    0.44092    1.10529   1.00
C5       0.28200    0.37888    1.09018   1.00
C5       0.29775    0.36389    1.12948   1.00
H2       0.05714    0.60783    0.84641   1.00
H2       0.06553    0.65799    0.86547   1.00
H2       0.10677    0.62977    0.84422   1.00
H2       0.21895    0.62889    1.18173   1.00
H2       0.24449    0.65938    1.14475   1.00
H2       0.19707    0.63591    1.13252   1.00
H2       0.45613    0.35763    0.87031   1.00
H2       0.42656    0.33741    0.91112   1.00
H2       0.40577    0.33956    0.86100   1.00
H2       0.29366    0.38732    1.15273   1.00
H2       0.28116    0.33646    1.13834   1.00
H2       0.33010    0.35678    1.12648   1.00
C5       0.88218    0.57721    1.10056   1.00
H2       0.89745    0.54993    1.10904   1.00
H2       0.86090    0.58319    1.12427   1.00
C5       0.91194    0.61072    1.09741   1.00
C5       0.92123    0.62768    1.13796   1.00
H2       0.90015    0.63434    1.07849   1.00
O3       0.73000    0.56271    0.96710   1.00
C4       0.77100    0.49958    0.99997   1.00
C3c      0.79243    0.51520    1.03121   1.00
H1       0.77725    0.52747    1.05599   1.00
C3d      0.79135    0.48323    0.96821   1.00
C3       0.83354    0.51579    1.03081   1.00
O2       0.85248    0.52714    1.06435   1.00
C3       0.83227    0.48445    0.96739   1.00
H1       0.84657    0.47281    0.94179   1.00
C2       0.85439    0.50052    0.99854   1.00
C5       0.72879    0.56116    0.92594   1.00
H2       0.69838    0.56251    0.91448   1.00
H2       0.74266    0.53387    0.91483   1.00
C5       0.75129    0.59628    0.91047   1.00
H2       0.78137    0.59553    0.92280   1.00
H2       0.73698    0.62335    0.92144   1.00
C5       0.75262    0.59609    0.86556   1.00
H2       0.72268    0.59656    0.85305   1.00
H2       0.76811    0.56974    0.85461   1.00
C5       0.77445    0.63243    0.85067   1.00
C5       0.76105    0.43075    0.94069   1.00
C5       0.86070    0.56755    1.06281   1.00
H2       0.74088    0.42724    0.96587   1.00
H2       0.78712    0.41184    0.94549   1.00
H2       0.83300    0.58456    1.06091   1.00
H2       0.87895    0.57562    1.03697   1.00
H2       0.94030    0.60024    1.08514   1.00
H2       0.69247    0.38293    0.92965   1.00
H2       0.73763    0.35614    0.92212   1.00
C2       0.64605    0.50091    0.99748   1.00
C3       0.66597    0.46995    1.01596   1.00
O2       0.64674    0.43565    1.02459   1.00
C3       0.66826    0.53198    0.98177   1.00
H1       0.65385    0.55660    0.96834   1.00
C3a      0.70713    0.47017    1.01744   1.00
H1       0.72202    0.44520    1.02970   1.00
C3b      0.70922    0.53151    0.98218   1.00
C4       0.72900    0.50042    1.00003   1.00
O3       0.77167    0.47018    0.93546   1.00
C5       0.63720    0.43435    1.06462   1.00
H2       0.66391    0.43615    1.08321   1.00
C5       0.61674    0.39552    1.07189   1.00
H2       0.61726    0.45877    1.07264   1.00
H2       0.63932    0.37226    1.07416   1.00
H2       0.59907    0.38873    1.04546   1.00
C5       0.59082    0.39597    1.10857   1.00
H2       0.60824    0.40579    1.13410   1.00
C5       0.57453    0.35498    1.11709   1.00
H2       0.56507    0.41565    1.10472   1.00
C5       0.74017    0.41748    0.90372   1.00
H2       0.76215    0.41457    0.87995   1.00
H2       0.71952    0.44092    0.89471   1.00
C5       0.71800    0.37888    0.90982   1.00
C5       0.70225    0.36389    0.87052   1.00
H2       0.94286    0.60783    1.15359   1.00
H2       0.93447    0.65799    1.13453   1.00
H2       0.89323    0.62977    1.15578   1.00
H2       0.78105    0.62889    0.81827   1.00
H2       0.75551    0.65938    0.85525   1.00
H2       0.80293    0.63591    0.86748   1.00
H2       0.54387    0.35763    1.12969   1.00
H2       0.57344    0.33741    1.08888   1.00
H2       0.59423    0.33956    1.13900   1.00
H2       0.70634    0.38732    0.84727   1.00
H2       0.71884    0.33646    0.86166   1.00
H2       0.66990    0.35678    0.87352   1.00
C5       0.39944    0.11782    1.07721   1.00
H2       0.39096    0.10255    1.04993   1.00
H2       0.37573    0.13910    1.08319   1.00
C5       0.40259    0.08806    1.11072   1.00
C5       0.36204    0.07877    1.12768   1.00
H2       0.42151    0.09985    1.13434   1.00
O3       0.53290    0.27000    1.06271   1.00
C4       0.50003    0.22900    0.99958   1.00
C3c      0.46879    0.20757    1.01520   1.00
H1       0.44401    0.22275    1.02747   1.00
C3d      0.53179    0.20865    0.98323   1.00
C3       0.46919    0.16646    1.01579   1.00
O2       0.43565    0.14752    1.02714   1.00
C3       0.53261    0.16773    0.98445   1.00
H1       0.55821    0.15343    0.97281   1.00
C2       0.50146    0.14561    1.00052   1.00
C5       0.57406    0.27121    1.06116   1.00
H2       0.58552    0.30162    1.06251   1.00
H2       0.58517    0.25734    1.03387   1.00
C5       0.58953    0.24871    1.09628   1.00
H2       0.57720    0.21863    1.09553   1.00
H2       0.57856    0.26302    1.12335   1.00
C5       0.63444    0.24738    1.09609   1.00
H2       0.64695    0.27732    1.09656   1.00
H2       0.64539    0.23189    1.06974   1.00
C5       0.64933    0.22555    1.13243   1.00
C5       0.55931    0.23895    0.93075   1.00
C5       0.43719    0.13930    1.06755   1.00
H2       0.53413    0.25912    0.92724   1.00
H2       0.55451    0.21288    0.91184   1.00
H2       0.43909    0.16700    1.08456   1.00
H2       0.46303    0.12105    1.07562   1.00
H2       0.41486    0.05970    1.10024   1.00
H2       0.57035    0.30753    0.88293   1.00
H2       0.57788    0.26237    0.85614   1.00
C2       0.50252    0.35395    1.00091   1.00
C3       0.48404    0.33403    0.96995   1.00
O2       0.47541    0.35326    0.93565   1.00
C3       0.51823    0.33174    1.03198   1.00
H1       0.53166    0.34615    1.05660   1.00
C3a      0.48256    0.29287    0.97017   1.00
H1       0.47030    0.27798    0.94520   1.00
C3b      0.51782    0.29078    1.03151   1.00
C4       0.49997    0.27100    1.00042   1.00
O3       0.56454    0.22833    0.97018   1.00
C5       0.43538    0.36280    0.93435   1.00
H2       0.41679    0.33609    0.93615   1.00
C5       0.42811    0.38326    0.89552   1.00
H2       0.42736    0.38274    0.95877   1.00
H2       0.42584    0.36068    0.87226   1.00
H2       0.45454    0.40093    0.88873   1.00
C5       0.39143    0.40918    0.89597   1.00
H2       0.36590    0.39176    0.90579   1.00
C5       0.38291    0.42547    0.85498   1.00
H2       0.39528    0.43493    0.91565   1.00
C5       0.59628    0.25983    0.91748   1.00
H2       0.62005    0.23785    0.91457   1.00
H2       0.60529    0.28048    0.94092   1.00
C5       0.59018    0.28200    0.87888   1.00
C5       0.62948    0.29775    0.86389   1.00
H2       0.34641    0.05714    1.10783   1.00
H2       0.36547    0.06553    1.15799   1.00
H2       0.34422    0.10677    1.12977   1.00
H2       0.68173    0.21895    1.12889   1.00
H2       0.64475    0.24449    1.15938   1.00
H2       0.63252    0.19707    1.13591   1.00
H2       0.37031    0.45613    0.85763   1.00
H2       0.41112    0.42656    0.83741   1.00
H2       0.36100    0.40577    0.83956   1.00
H2       0.65273    0.29366    0.88732   1.00
H2       0.63834    0.28116    0.83646   1.00
H2       0.62648    0.33010    0.85678   1.00
C5       0.57721    0.39944    0.61782   1.00
H2       0.54993    0.39096    0.60255   1.00
H2       0.58319    0.37573    0.63910   1.00
C5       0.61072    0.40259    0.58806   1.00
C5       0.62768    0.36204    0.57877   1.00
H2       0.63434    0.42151    0.59985   1.00
O3       0.56271    0.53290    0.77000   1.00
C4       0.49958    0.50003    0.72900   1.00
C3c      0.51520    0.46879    0.70757   1.00
H1       0.52747    0.44401    0.72275   1.00
C3d      0.48323    0.53179    0.70865   1.00
C3       0.51579    0.46919    0.66646   1.00
O2       0.52714    0.43565    0.64752   1.00
C3       0.48445    0.53261    0.66773   1.00
H1       0.47281    0.55821    0.65343   1.00
C2       0.50052    0.50146    0.64561   1.00
C5       0.56116    0.57406    0.77121   1.00
H2       0.56251    0.58552    0.80162   1.00
H2       0.53387    0.58517    0.75734   1.00
C5       0.59628    0.58953    0.74871   1.00
H2       0.59553    0.57720    0.71863   1.00
H2       0.62335    0.57856    0.76302   1.00
C5       0.59609    0.63444    0.74738   1.00
H2       0.59656    0.64695    0.77732   1.00
H2       0.56974    0.64539    0.73189   1.00
C5       0.63243    0.64933    0.72555   1.00
C5       0.43075    0.55931    0.73895   1.00
C5       0.56755    0.43719    0.63930   1.00
H2       0.42724    0.53413    0.75912   1.00
H2       0.41184    0.55451    0.71288   1.00
H2       0.58456    0.43909    0.66700   1.00
H2       0.57562    0.46303    0.62105   1.00
H2       0.60024    0.41486    0.55970   1.00
H2       0.38293    0.57035    0.80753   1.00
H2       0.35614    0.57788    0.76237   1.00
C2       0.50091    0.50252    0.85395   1.00
C3       0.46995    0.48404    0.83403   1.00
O2       0.43565    0.47541    0.85326   1.00
C3       0.53198    0.51823    0.83174   1.00
H1       0.55660    0.53166    0.84615   1.00
C3a      0.47017    0.48256    0.79287   1.00
H1       0.44520    0.47030    0.77798   1.00
C3b      0.53151    0.51782    0.79078   1.00
C4       0.50042    0.49997    0.77100   1.00
O3       0.47018    0.56454    0.72833   1.00
C5       0.43435    0.43538    0.86280   1.00
H2       0.43615    0.41679    0.83609   1.00
C5       0.39552    0.42811    0.88326   1.00
H2       0.45877    0.42736    0.88274   1.00
H2       0.37226    0.42584    0.86068   1.00
H2       0.38873    0.45454    0.90093   1.00
C5       0.39597    0.39143    0.90918   1.00
H2       0.40579    0.36590    0.89176   1.00
C5       0.35498    0.38291    0.92547   1.00
H2       0.41565    0.39528    0.93493   1.00
C5       0.41748    0.59628    0.75983   1.00
H2       0.41457    0.62005    0.73785   1.00
H2       0.44092    0.60529    0.78048   1.00
C5       0.37888    0.59018    0.78200   1.00
C5       0.36389    0.62948    0.79775   1.00
H2       0.60783    0.34641    0.55714   1.00
H2       0.65799    0.36547    0.56553   1.00
H2       0.62977    0.34422    0.60677   1.00
H2       0.62889    0.68173    0.71895   1.00
H2       0.65938    0.64475    0.74449   1.00
H2       0.63591    0.63252    0.69707   1.00
H2       0.35763    0.37031    0.95613   1.00
H2       0.33741    0.41112    0.92656   1.00
H2       0.33956    0.36100    0.90577   1.00
H2       0.38732    0.65273    0.79366   1.00
H2       0.33646    0.63834    0.78116   1.00
H2       0.35678    0.62648    0.83010   1.00
C5       0.57721    1.10056    0.88218   1.00
H2       0.54993    1.10904    0.89745   1.00
H2       0.58319    1.12427    0.86090   1.00
C5       0.61072    1.09741    0.91194   1.00
C5       0.62768    1.13796    0.92123   1.00
H2       0.63434    1.07849    0.90015   1.00
O3       0.56271    0.96710    0.73000   1.00
C4       0.49958    0.99997    0.77100   1.00
C3c      0.51520    1.03121    0.79243   1.00
H1       0.52747    1.05599    0.77725   1.00
C3d      0.48323    0.96821    0.79135   1.00
C3       0.51579    1.03081    0.83354   1.00
O2       0.52714    1.06435    0.85248   1.00
C3       0.48445    0.96739    0.83227   1.00
H1       0.47281    0.94179    0.84657   1.00
C2       0.50052    0.99854    0.85439   1.00
C5       0.56116    0.92594    0.72879   1.00
H2       0.56251    0.91448    0.69838   1.00
H2       0.53387    0.91483    0.74266   1.00
C5       0.59628    0.91047    0.75129   1.00
H2       0.59553    0.92280    0.78137   1.00
H2       0.62335    0.92144    0.73698   1.00
C5       0.59609    0.86556    0.75262   1.00
H2       0.59656    0.85305    0.72268   1.00
H2       0.56974    0.85461    0.76811   1.00
C5       0.63243    0.85067    0.77445   1.00
C5       0.43075    0.94069    0.76105   1.00
C5       0.56755    1.06281    0.86070   1.00
H2       0.42724    0.96587    0.74088   1.00
H2       0.41184    0.94549    0.78712   1.00
H2       0.58456    1.06091    0.83300   1.00
H2       0.57562    1.03697    0.87895   1.00
H2       0.60024    1.08514    0.94030   1.00
H2       0.38293    0.92965    0.69247   1.00
H2       0.35614    0.92212    0.73763   1.00
C2       0.50091    0.99748    0.64605   1.00
C3       0.46995    1.01596    0.66597   1.00
O2       0.43565    1.02459    0.64674   1.00
C3       0.53198    0.98177    0.66826   1.00
H1       0.55660    0.96834    0.65385   1.00
C3a      0.47017    1.01744    0.70713   1.00
H1       0.44520    1.02970    0.72202   1.00
C3b      0.53151    0.98218    0.70922   1.00
C4       0.50042    1.00003    0.72900   1.00
O3       0.47018    0.93546    0.77167   1.00
C5       0.43435    1.06462    0.63720   1.00
H2       0.43615    1.08321    0.66391   1.00
C5       0.39552    1.07189    0.61674   1.00
H2       0.45877    1.07264    0.61726   1.00
H2       0.37226    1.07416    0.63932   1.00
H2       0.38873    1.04546    0.59907   1.00
C5       0.39597    1.10857    0.59082   1.00
H2       0.40579    1.13410    0.60824   1.00
C5       0.35498    1.11709    0.57453   1.00
H2       0.41565    1.10472    0.56507   1.00
C5       0.41748    0.90372    0.74017   1.00
H2       0.41457    0.87995    0.76215   1.00
H2       0.44092    0.89471    0.71952   1.00
C5       0.37888    0.90982    0.71800   1.00
C5       0.36389    0.87052    0.70225   1.00
H2       0.60783    1.15359    0.94286   1.00
H2       0.65799    1.13453    0.93447   1.00
H2       0.62977    1.15578    0.89323   1.00
H2       0.62889    0.81827    0.78105   1.00
H2       0.65938    0.85525    0.75551   1.00
H2       0.63591    0.86748    0.80293   1.00
H2       0.35763    1.12969    0.54387   1.00
H2       0.33741    1.08888    0.57344   1.00
H2       0.33956    1.13900    0.59423   1.00
H2       0.38732    0.84727    0.70634   1.00
H2       0.33646    0.86166    0.71884   1.00
H2       0.35678    0.87352    0.66990   1.00
C5       0.60056    1.38218    0.57721   1.00
H2       0.60904    1.39745    0.54993   1.00
H2       0.62427    1.36090    0.58319   1.00
C5       0.59741    1.41194    0.61072   1.00
C5       0.63796    1.42123    0.62768   1.00
H2       0.57849    1.40015    0.63434   1.00
O3       0.46710    1.23000    0.56271   1.00
C4       0.49997    1.27100    0.49958   1.00
C3c      0.53121    1.29243    0.51520   1.00
H1       0.55599    1.27725    0.52747   1.00
C3d      0.46821    1.29135    0.48323   1.00
C3       0.53081    1.33354    0.51579   1.00
O2       0.56435    1.35248    0.52714   1.00
C3       0.46739    1.33227    0.48445   1.00
H1       0.44179    1.34657    0.47281   1.00
C2       0.49854    1.35439    0.50052   1.00
C5       0.42594    1.22879    0.56116   1.00
H2       0.41448    1.19838    0.56251   1.00
H2       0.41483    1.24266    0.53387   1.00
C5       0.41047    1.25129    0.59628   1.00
H2       0.42280    1.28137    0.59553   1.00
H2       0.42144    1.23698    0.62335   1.00
C5       0.36556    1.25262    0.59609   1.00
H2       0.35305    1.22268    0.59656   1.00
H2       0.35461    1.26811    0.56974   1.00
C5       0.35067    1.27445    0.63243   1.00
C5       0.44069    1.26105    0.43075   1.00
C5       0.56281    1.36070    0.56755   1.00
H2       0.46587    1.24088    0.42724   1.00
H2       0.44549    1.28712    0.41184   1.00
H2       0.56091    1.33300    0.58456   1.00
H2       0.53697    1.37895    0.57562   1.00
H2       0.58514    1.44030    0.60024   1.00
H2       0.42965    1.19247    0.38293   1.00
H2       0.42212    1.23763    0.35614   1.00
C2       0.49748    1.14605    0.50091   1.00
C3       0.51596    1.16597    0.46995   1.00
O2       0.52459    1.14674    0.43565   1.00
C3       0.48177    1.16826    0.53198   1.00
H1       0.46834    1.15385    0.55660   1.00
C3a      0.51744    1.20713    0.47017   1.00
H1       0.52970    1.22202    0.44520   1.00
C3b      0.48218    1.20922    0.53151   1.00
C4       0.50003    1.22900    0.50042   1.00
O3       0.43546    1.27167    0.47018   1.00
C5       0.56462    1.13720    0.43435   1.00
H2       0.58321    1.16391    0.43615   1.00
C5       0.57189    1.11674    0.39552   1.00
H2       0.57264    1.11726    0.45877   1.00
H2       0.57416    1.13932    0.37226   1.00
H2       0.54546    1.09907    0.38873   1.00
C5       0.60857    1.09082    0.39597   1.00
H2       0.63410    1.10824    0.40579   1.00
C5       0.61709    1.07453    0.35498   1.00
H2       0.60472    1.06507    0.41565   1.00
C5       0.40372    1.24017    0.41748   1.00
H2       0.37995    1.26215    0.41457   1.00
H2       0.39471    1.21952    0.44092   1.00
C5       0.40982    1.21800    0.37888   1.00
C5       0.37052    1.20225    0.36389   1.00
H2       0.65359    1.44286    0.60783   1.00
H2       0.63453    1.43447    0.65799   1.00
H2       0.65578    1.39323    0.62977   1.00
H2       0.31827    1.28105    0.62889   1.00
H2       0.35525    1.25551    0.65938   1.00
H2       0.36748    1.30293    0.63591   1.00
H2       0.62969    1.04387    0.35763   1.00
H2       0.58888    1.07344    0.33741   1.00
H2       0.63900    1.09423    0.33956   1.00
H2       0.34727    1.20634    0.38732   1.00
H2       0.36166    1.21884    0.33646   1.00
H2       0.37352    1.16990    0.35678   1.00
C5       0.11782    1.07721    0.39944   1.00
H2       0.10255    1.04993    0.39096   1.00
H2       0.13910    1.08319    0.37573   1.00
C5       0.08806    1.11072    0.40259   1.00
C5       0.07877    1.12768    0.36204   1.00
H2       0.09985    1.13434    0.42151   1.00
O3       0.27000    1.06271    0.53290   1.00
C4       0.22900    0.99958    0.50003   1.00
C3c      0.20757    1.01520    0.46879   1.00
H1       0.22275    1.02747    0.44401   1.00
C3d      0.20865    0.98323    0.53179   1.00
C3       0.16646    1.01579    0.46919   1.00
O2       0.14752    1.02714    0.43565   1.00
C3       0.16773    0.98445    0.53261   1.00
H1       0.15343    0.97281    0.55821   1.00
C2       0.14561    1.00052    0.50146   1.00
C5       0.27121    1.06116    0.57406   1.00
H2       0.30162    1.06251    0.58552   1.00
H2       0.25734    1.03387    0.58517   1.00
C5       0.24871    1.09628    0.58953   1.00
H2       0.21863    1.09553    0.57720   1.00
H2       0.26302    1.12335    0.57856   1.00
C5       0.24738    1.09609    0.63444   1.00
H2       0.27732    1.09656    0.64695   1.00
H2       0.23189    1.06974    0.64539   1.00
C5       0.22555    1.13243    0.64933   1.00
C5       0.23895    0.93075    0.55931   1.00
C5       0.13930    1.06755    0.43719   1.00
H2       0.25912    0.92724    0.53413   1.00
H2       0.21288    0.91184    0.55451   1.00
H2       0.16700    1.08456    0.43909   1.00
H2       0.12105    1.07562    0.46303   1.00
H2       0.05970    1.10024    0.41486   1.00
H2       0.30753    0.88293    0.57035   1.00
H2       0.26237    0.85614    0.57788   1.00
C2       0.35395    1.00091    0.50252   1.00
C3       0.33403    0.96995    0.48404   1.00
O2       0.35326    0.93565    0.47541   1.00
C3       0.33174    1.03198    0.51823   1.00
H1       0.34615    1.05660    0.53166   1.00
C3a      0.29287    0.97017    0.48256   1.00
H1       0.27798    0.94520    0.47030   1.00
C3b      0.29078    1.03151    0.51782   1.00
C4       0.27100    1.00042    0.49997   1.00
O3       0.22833    0.97018    0.56454   1.00
C5       0.36280    0.93435    0.43538   1.00
H2       0.33609    0.93615    0.41679   1.00
C5       0.38326    0.89552    0.42811   1.00
H2       0.38274    0.95877    0.42736   1.00
H2       0.36068    0.87226    0.42584   1.00
H2       0.40093    0.88873    0.45454   1.00
C5       0.40918    0.89597    0.39143   1.00
H2       0.39176    0.90579    0.36590   1.00
C5       0.42547    0.85498    0.38291   1.00
H2       0.43493    0.91565    0.39528   1.00
C5       0.25983    0.91748    0.59628   1.00
H2       0.23785    0.91457    0.62005   1.00
H2       0.28048    0.94092    0.60529   1.00
C5       0.28200    0.87888    0.59018   1.00
C5       0.29775    0.86389    0.62948   1.00
H2       0.05714    1.10783    0.34641   1.00
H2       0.06553    1.15799    0.36547   1.00
H2       0.10677    1.12977    0.34422   1.00
H2       0.21895    1.12889    0.68173   1.00
H2       0.24449    1.15938    0.64475   1.00
H2       0.19707    1.13591    0.63252   1.00
H2       0.45613    0.85763    0.37031   1.00
H2       0.42656    0.83741    0.41112   1.00
H2       0.40577    0.83956    0.36100   1.00
H2       0.29366    0.88732    0.65273   1.00
H2       0.28116    0.83646    0.63834   1.00
H2       0.33010    0.85678    0.62648   1.00
C5       0.88218    1.07721    0.60056   1.00
H2       0.89745    1.04993    0.60904   1.00
H2       0.86090    1.08319    0.62427   1.00
C5       0.91194    1.11072    0.59741   1.00
C5       0.92123    1.12768    0.63796   1.00
H2       0.90015    1.13434    0.57849   1.00
O3       0.73000    1.06271    0.46710   1.00
C4       0.77100    0.99958    0.49997   1.00
C3c      0.79243    1.01520    0.53121   1.00
H1       0.77725    1.02747    0.55599   1.00
C3d      0.79135    0.98323    0.46821   1.00
C3       0.83354    1.01579    0.53081   1.00
O2       0.85248    1.02714    0.56435   1.00
C3       0.83227    0.98445    0.46739   1.00
H1       0.84657    0.97281    0.44179   1.00
C2       0.85439    1.00052    0.49854   1.00
C5       0.72879    1.06116    0.42594   1.00
H2       0.69838    1.06251    0.41448   1.00
H2       0.74266    1.03387    0.41483   1.00
C5       0.75129    1.09628    0.41047   1.00
H2       0.78137    1.09553    0.42280   1.00
H2       0.73698    1.12335    0.42144   1.00
C5       0.75262    1.09609    0.36556   1.00
H2       0.72268    1.09656    0.35305   1.00
H2       0.76811    1.06974    0.35461   1.00
C5       0.77445    1.13243    0.35067   1.00
C5       0.76105    0.93075    0.44069   1.00
C5       0.86070    1.06755    0.56281   1.00
H2       0.74088    0.92724    0.46587   1.00
H2       0.78712    0.91184    0.44549   1.00
H2       0.83300    1.08456    0.56091   1.00
H2       0.87895    1.07562    0.53697   1.00
H2       0.94030    1.10024    0.58514   1.00
H2       0.69247    0.88293    0.42965   1.00
H2       0.73763    0.85614    0.42212   1.00
C2       0.64605    1.00091    0.49748   1.00
C3       0.66597    0.96995    0.51596   1.00
O2       0.64674    0.93565    0.52459   1.00
C3       0.66826    1.03198    0.48177   1.00
H1       0.65385    1.05660    0.46834   1.00
C3a      0.70713    0.97017    0.51744   1.00
H1       0.72202    0.94520    0.52970   1.00
C3b      0.70922    1.03151    0.48218   1.00
C4       0.72900    1.00042    0.50003   1.00
O3       0.77167    0.97018    0.43546   1.00
C5       0.63720    0.93435    0.56462   1.00
H2       0.66391    0.93615    0.58321   1.00
C5       0.61674    0.89552    0.57189   1.00
H2       0.61726    0.95877    0.57264   1.00
H2       0.63932    0.87226    0.57416   1.00
H2       0.59907    0.88873    0.54546   1.00
C5       0.59082    0.89597    0.60857   1.00
H2       0.60824    0.90579    0.63410   1.00
C5       0.57453    0.85498    0.61709   1.00
H2       0.56507    0.91565    0.60472   1.00
C5       0.74017    0.91748    0.40372   1.00
H2       0.76215    0.91457    0.37995   1.00
H2       0.71952    0.94092    0.39471   1.00
C5       0.71800    0.87888    0.40982   1.00
C5       0.70225    0.86389    0.37052   1.00
H2       0.94286    1.10783    0.65359   1.00
H2       0.93447    1.15799    0.63453   1.00
H2       0.89323    1.12977    0.65578   1.00
H2       0.78105    1.12889    0.31827   1.00
H2       0.75551    1.15938    0.35525   1.00
H2       0.80293    1.13591    0.36748   1.00
H2       0.54387    0.85763    0.62969   1.00
H2       0.57344    0.83741    0.58888   1.00
H2       0.59423    0.83956    0.63900   1.00
H2       0.70634    0.88732    0.34727   1.00
H2       0.71884    0.83646    0.36166   1.00
H2       0.66990    0.85678    0.37352   1.00
C5       0.39944    0.61782    0.57721   1.00
H2       0.39096    0.60255    0.54993   1.00
H2       0.37573    0.63910    0.58319   1.00
C5       0.40259    0.58806    0.61072   1.00
C5       0.36204    0.57877    0.62768   1.00
H2       0.42151    0.59985    0.63434   1.00
O3       0.53290    0.77000    0.56271   1.00
C4       0.50003    0.72900    0.49958   1.00
C3c      0.46879    0.70757    0.51520   1.00
H1       0.44401    0.72275    0.52747   1.00
C3d      0.53179    0.70865    0.48323   1.00
C3       0.46919    0.66646    0.51579   1.00
O2       0.43565    0.64752    0.52714   1.00
C3       0.53261    0.66773    0.48445   1.00
H1       0.55821    0.65343    0.47281   1.00
C2       0.50146    0.64561    0.50052   1.00
C5       0.57406    0.77121    0.56116   1.00
H2       0.58552    0.80162    0.56251   1.00
H2       0.58517    0.75734    0.53387   1.00
C5       0.58953    0.74871    0.59628   1.00
H2       0.57720    0.71863    0.59553   1.00
H2       0.57856    0.76302    0.62335   1.00
C5       0.63444    0.74738    0.59609   1.00
H2       0.64695    0.77732    0.59656   1.00
H2       0.64539    0.73189    0.56974   1.00
C5       0.64933    0.72555    0.63243   1.00
C5       0.55931    0.73895    0.43075   1.00
C5       0.43719    0.63930    0.56755   1.00
H2       0.53413    0.75912    0.42724   1.00
H2       0.55451    0.71288    0.41184   1.00
H2       0.43909    0.66700    0.58456   1.00
H2       0.46303    0.62105    0.57562   1.00
H2       0.41486    0.55970    0.60024   1.00
H2       0.57035    0.80753    0.38293   1.00
H2       0.57788    0.76237    0.35614   1.00
C2       0.50252    0.85395    0.50091   1.00
C3       0.48404    0.83403    0.46995   1.00
O2       0.47541    0.85326    0.43565   1.00
C3       0.51823    0.83174    0.53198   1.00
H1       0.53166    0.84615    0.55660   1.00
C3a      0.48256    0.79287    0.47017   1.00
H1       0.47030    0.77798    0.44520   1.00
C3b      0.51782    0.79078    0.53151   1.00
C4       0.49997    0.77100    0.50042   1.00
O3       0.56454    0.72833    0.47018   1.00
C5       0.43538    0.86280    0.43435   1.00
H2       0.41679    0.83609    0.43615   1.00
C5       0.42811    0.88326    0.39552   1.00
H2       0.42736    0.88274    0.45877   1.00
H2       0.42584    0.86068    0.37226   1.00
H2       0.45454    0.90093    0.38873   1.00
C5       0.39143    0.90918    0.39597   1.00
H2       0.36590    0.89176    0.40579   1.00
C5       0.38291    0.92547    0.35498   1.00
H2       0.39528    0.93493    0.41565   1.00
C5       0.59628    0.75983    0.41748   1.00
H2       0.62005    0.73785    0.41457   1.00
H2       0.60529    0.78048    0.44092   1.00
C5       0.59018    0.78200    0.37888   1.00
C5       0.62948    0.79775    0.36389   1.00
H2       0.34641    0.55714    0.60783   1.00
H2       0.36547    0.56553    0.65799   1.00
H2       0.34422    0.60677    0.62977   1.00
H2       0.68173    0.71895    0.62889   1.00
H2       0.64475    0.74449    0.65938   1.00
H2       0.63252    0.69707    0.63591   1.00
H2       0.37031    0.95613    0.35763   1.00
H2       0.41112    0.92656    0.33741   1.00
H2       0.36100    0.90577    0.33956   1.00
H2       0.65273    0.79366    0.38732   1.00
H2       0.63834    0.78116    0.33646   1.00
H2       0.62648    0.83010    0.35678   1.00
C5       0.57721    0.89944    0.11782   1.00
H2       0.54993    0.89096    0.10255   1.00
H2       0.58319    0.87573    0.13910   1.00
C5       0.61072    0.90259    0.08806   1.00
C5       0.62768    0.86204    0.07877   1.00
H2       0.63434    0.92151    0.09985   1.00
O3       0.56271    1.03290    0.27000   1.00
C4       0.49958    1.00003    0.22900   1.00
C3c      0.51520    0.96879    0.20757   1.00
H1       0.52747    0.94401    0.22275   1.00
C3d      0.48323    1.03179    0.20865   1.00
C3       0.51579    0.96919    0.16646   1.00
O2       0.52714    0.93565    0.14752   1.00
C3       0.48445    1.03261    0.16773   1.00
H1       0.47281    1.05821    0.15343   1.00
C2       0.50052    1.00146    0.14561   1.00
C5       0.56116    1.07406    0.27121   1.00
H2       0.56251    1.08552    0.30162   1.00
H2       0.53387    1.08517    0.25734   1.00
C5       0.59628    1.08953    0.24871   1.00
H2       0.59553    1.07720    0.21863   1.00
H2       0.62335    1.07856    0.26302   1.00
C5       0.59609    1.13444    0.24738   1.00
H2       0.59656    1.14695    0.27732   1.00
H2       0.56974    1.14539    0.23189   1.00
C5       0.63243    1.14933    0.22555   1.00
C5       0.43075    1.05931    0.23895   1.00
C5       0.56755    0.93719    0.13930   1.00
H2       0.42724    1.03413    0.25912   1.00
H2       0.41184    1.05451    0.21288   1.00
H2       0.58456    0.93909    0.16700   1.00
H2       0.57562    0.96303    0.12105   1.00
H2       0.60024    0.91486    0.05970   1.00
H2       0.38293    1.07035    0.30753   1.00
H2       0.35614    1.07788    0.26237   1.00
C2       0.50091    1.00252    0.35395   1.00
C3       0.46995    0.98404    0.33403   1.00
O2       0.43565    0.97541    0.35326   1.00
C3       0.53198    1.01823    0.33174   1.00
H1       0.55660    1.03166    0.34615   1.00
C3a      0.47017    0.98256    0.29287   1.00
H1       0.44520    0.97030    0.27798   1.00
C3b      0.53151    1.01782    0.29078   1.00
C4       0.50042    0.99997    0.27100   1.00
O3       0.47018    1.06454    0.22833   1.00
C5       0.43435    0.93538    0.36280   1.00
H2       0.43615    0.91679    0.33609   1.00
C5       0.39552    0.92811    0.38326   1.00
H2       0.45877    0.92736    0.38274   1.00
H2       0.37226    0.92584    0.36068   1.00
H2       0.38873    0.95454    0.40093   1.00
C5       0.39597    0.89143    0.40918   1.00
H2       0.40579    0.86590    0.39176   1.00
C5       0.35498    0.88291    0.42547   1.00
H2       0.41565    0.89528    0.43493   1.00
C5       0.41748    1.09628    0.25983   1.00
H2       0.41457    1.12005    0.23785   1.00
H2       0.44092    1.10529    0.28048   1.00
C5       0.37888    1.09018    0.28200   1.00
C5       0.36389    1.12948    0.29775   1.00
H2       0.60783    0.84641    0.05714   1.00
H2       0.65799    0.86547    0.06553   1.00
H2       0.62977    0.84422    0.10677   1.00
H2       0.62889    1.18173    0.21895   1.00
H2       0.65938    1.14475    0.24449   1.00
H2       0.63591    1.13252    0.19707   1.00
H2       0.35763    0.87031    0.45613   1.00
H2       0.33741    0.91112    0.42656   1.00
H2       0.33956    0.86100    0.40577   1.00
H2       0.38732    1.15273    0.29366   1.00
H2       0.33646    1.13834    0.28116   1.00
H2       0.35678    1.12648    0.33010   1.00
C5       1.07721    0.60056    0.88218   1.00
H2       1.04993    0.60904    0.89745   1.00
H2       1.08319    0.62427    0.86090   1.00
C5       1.11072    0.59741    0.91194   1.00
C5       1.12768    0.63796    0.92123   1.00
H2       1.13434    0.57849    0.90015   1.00
O3       1.06271    0.46710    0.73000   1.00
C4       0.99958    0.49997    0.77100   1.00
C3c      1.01520    0.53121    0.79243   1.00
H1       1.02747    0.55599    0.77725   1.00
C3d      0.98323    0.46821    0.79135   1.00
C3       1.01579    0.53081    0.83354   1.00
O2       1.02714    0.56435    0.85248   1.00
C3       0.98445    0.46739    0.83227   1.00
H1       0.97281    0.44179    0.84657   1.00
C2       1.00052    0.49854    0.85439   1.00
C5       1.06116    0.42594    0.72879   1.00
H2       1.06251    0.41448    0.69838   1.00
H2       1.03387    0.41483    0.74266   1.00
C5       1.09628    0.41047    0.75129   1.00
H2       1.09553    0.42280    0.78137   1.00
H2       1.12335    0.42144    0.73698   1.00
C5       1.09609    0.36556    0.75262   1.00
H2       1.09656    0.35305    0.72268   1.00
H2       1.06974    0.35461    0.76811   1.00
C5       1.13243    0.35067    0.77445   1.00
C5       0.93075    0.44069    0.76105   1.00
C5       1.06755    0.56281    0.86070   1.00
H2       0.92724    0.46587    0.74088   1.00
H2       0.91184    0.44549    0.78712   1.00
H2       1.08456    0.56091    0.83300   1.00
H2       1.07562    0.53697    0.87895   1.00
H2       1.10024    0.58514    0.94030   1.00
H2       0.88293    0.42965    0.69247   1.00
H2       0.85614    0.42212    0.73763   1.00
C2       1.00091    0.49748    0.64605   1.00
C3       0.96995    0.51596    0.66597   1.00
O2       0.93565    0.52459    0.64674   1.00
C3       1.03198    0.48177    0.66826   1.00
H1       1.05660    0.46834    0.65385   1.00
C3a      0.97017    0.51744    0.70713   1.00
H1       0.94520    0.52970    0.72202   1.00
C3b      1.03151    0.48218    0.70922   1.00
C4       1.00042    0.50003    0.72900   1.00
O3       0.97018    0.43546    0.77167   1.00
C5       0.93435    0.56462    0.63720   1.00
H2       0.93615    0.58321    0.66391   1.00
C5       0.89552    0.57189    0.61674   1.00
H2       0.95877    0.57264    0.61726   1.00
H2       0.87226    0.57416    0.63932   1.00
H2       0.88873    0.54546    0.59907   1.00
C5       0.89597    0.60857    0.59082   1.00
H2       0.90579    0.63410    0.60824   1.00
C5       0.85498    0.61709    0.57453   1.00
H2       0.91565    0.60472    0.56507   1.00
C5       0.91748    0.40372    0.74017   1.00
H2       0.91457    0.37995    0.76215   1.00
H2       0.94092    0.39471    0.71952   1.00
C5       0.87888    0.40982    0.71800   1.00
C5       0.86389    0.37052    0.70225   1.00
H2       1.10783    0.65359    0.94286   1.00
H2       1.15799    0.63453    0.93447   1.00
H2       1.12977    0.65578    0.89323   1.00
H2       1.12889    0.31827    0.78105   1.00
H2       1.15938    0.35525    0.75551   1.00
H2       1.13591    0.36748    0.80293   1.00
H2       0.85763    0.62969    0.54387   1.00
H2       0.83741    0.58888    0.57344   1.00
H2       0.83956    0.63900    0.59423   1.00
H2       0.88732    0.34727    0.70634   1.00
H2       0.83646    0.36166    0.71884   1.00
H2       0.85678    0.37352    0.66990   1.00
C5       1.10056    0.88218    0.57721   1.00
H2       1.10904    0.89745    0.54993   1.00
H2       1.12427    0.86090    0.58319   1.00
C5       1.09741    0.91194    0.61072   1.00
C5       1.13796    0.92123    0.62768   1.00
H2       1.07849    0.90015    0.63434   1.00
O3       0.96710    0.73000    0.56271   1.00
C4       0.99997    0.77100    0.49958   1.00
C3c      1.03121    0.79243    0.51520   1.00
H1       1.05599    0.77725    0.52747   1.00
C3d      0.96821    0.79135    0.48323   1.00
C3       1.03081    0.83354    0.51579   1.00
O2       1.06435    0.85248    0.52714   1.00
C3       0.96739    0.83227    0.48445   1.00
H1       0.94179    0.84657    0.47281   1.00
C2       0.99854    0.85439    0.50052   1.00
C5       0.92594    0.72879    0.56116   1.00
H2       0.91448    0.69838    0.56251   1.00
H2       0.91483    0.74266    0.53387   1.00
C5       0.91047    0.75129    0.59628   1.00
H2       0.92280    0.78137    0.59553   1.00
H2       0.92144    0.73698    0.62335   1.00
C5       0.86556    0.75262    0.59609   1.00
H2       0.85305    0.72268    0.59656   1.00
H2       0.85461    0.76811    0.56974   1.00
C5       0.85067    0.77445    0.63243   1.00
C5       0.94069    0.76105    0.43075   1.00
C5       1.06281    0.86070    0.56755   1.00
H2       0.96587    0.74088    0.42724   1.00
H2       0.94549    0.78712    0.41184   1.00
H2       1.06091    0.83300    0.58456   1.00
H2       1.03697    0.87895    0.57562   1.00
H2       1.08514    0.94030    0.60024   1.00
H2       0.92965    0.69247    0.38293   1.00
H2       0.92212    0.73763    0.35614   1.00
C2       0.99748    0.64605    0.50091   1.00
C3       1.01596    0.66597    0.46995   1.00
O2       1.02459    0.64674    0.43565   1.00
C3       0.98177    0.66826    0.53198   1.00
H1       0.96834    0.65385    0.55660   1.00
C3a      1.01744    0.70713    0.47017   1.00
H1       1.02970    0.72202    0.44520   1.00
C3b      0.98218    0.70922    0.53151   1.00
C4       1.00003    0.72900    0.50042   1.00
O3       0.93546    0.77167    0.47018   1.00
C5       1.06462    0.63720    0.43435   1.00
H2       1.08321    0.66391    0.43615   1.00
C5       1.07189    0.61674    0.39552   1.00
H2       1.07264    0.61726    0.45877   1.00
H2       1.07416    0.63932    0.37226   1.00
H2       1.04546    0.59907    0.38873   1.00
C5       1.10857    0.59082    0.39597   1.00
H2       1.13410    0.60824    0.40579   1.00
C5       1.11709    0.57453    0.35498   1.00
H2       1.10472    0.56507    0.41565   1.00
C5       0.90372    0.74017    0.41748   1.00
H2       0.87995    0.76215    0.41457   1.00
H2       0.89471    0.71952    0.44092   1.00
C5       0.90982    0.71800    0.37888   1.00
C5       0.87052    0.70225    0.36389   1.00
H2       1.15359    0.94286    0.60783   1.00
H2       1.13453    0.93447    0.65799   1.00
H2       1.15578    0.89323    0.62977   1.00
H2       0.81827    0.78105    0.62889   1.00
H2       0.85525    0.75551    0.65938   1.00
H2       0.86748    0.80293    0.63591   1.00
H2       1.12969    0.54387    0.35763   1.00
H2       1.08888    0.57344    0.33741   1.00
H2       1.13900    0.59423    0.33956   1.00
H2       0.84727    0.70634    0.38732   1.00
H2       0.86166    0.71884    0.33646   1.00
H2       0.87352    0.66990    0.35678   1.00
C5       0.61782    0.57721    0.39944   1.00
H2       0.60255    0.54993    0.39096   1.00
H2       0.63910    0.58319    0.37573   1.00
C5       0.58806    0.61072    0.40259   1.00
C5       0.57877    0.62768    0.36204   1.00
H2       0.59985    0.63434    0.42151   1.00
O3       0.77000    0.56271    0.53290   1.00
C4       0.72900    0.49958    0.50003   1.00
C3c      0.70757    0.51520    0.46879   1.00
H1       0.72275    0.52747    0.44401   1.00
C3d      0.70865    0.48323    0.53179   1.00
C3       0.66646    0.51579    0.46919   1.00
O2       0.64752    0.52714    0.43565   1.00
C3       0.66773    0.48445    0.53261   1.00
H1       0.65343    0.47281    0.55821   1.00
C2       0.64561    0.50052    0.50146   1.00
C5       0.77121    0.56116    0.57406   1.00
H2       0.80162    0.56251    0.58552   1.00
H2       0.75734    0.53387    0.58517   1.00
C5       0.74871    0.59628    0.58953   1.00
H2       0.71863    0.59553    0.57720   1.00
H2       0.76302    0.62335    0.57856   1.00
C5       0.74738    0.59609    0.63444   1.00
H2       0.77732    0.59656    0.64695   1.00
H2       0.73189    0.56974    0.64539   1.00
C5       0.72555    0.63243    0.64933   1.00
C5       0.73895    0.43075    0.55931   1.00
C5       0.63930    0.56755    0.43719   1.00
H2       0.75912    0.42724    0.53413   1.00
H2       0.71288    0.41184    0.55451   1.00
H2       0.66700    0.58456    0.43909   1.00
H2       0.62105    0.57562    0.46303   1.00
H2       0.55970    0.60024    0.41486   1.00
H2       0.80753    0.38293    0.57035   1.00
H2       0.76237    0.35614    0.57788   1.00
C2       0.85395    0.50091    0.50252   1.00
C3       0.83403    0.46995    0.48404   1.00
O2       0.85326    0.43565    0.47541   1.00
C3       0.83174    0.53198    0.51823   1.00
H1       0.84615    0.55660    0.53166   1.00
C3a      0.79287    0.47017    0.48256   1.00
H1       0.77798    0.44520    0.47030   1.00
C3b      0.79078    0.53151    0.51782   1.00
C4       0.77100    0.50042    0.49997   1.00
O3       0.72833    0.47018    0.56454   1.00
C5       0.86280    0.43435    0.43538   1.00
H2       0.83609    0.43615    0.41679   1.00
C5       0.88326    0.39552    0.42811   1.00
H2       0.88274    0.45877    0.42736   1.00
H2       0.86068    0.37226    0.42584   1.00
H2       0.90093    0.38873    0.45454   1.00
C5       0.90918    0.39597    0.39143   1.00
H2       0.89176    0.40579    0.36590   1.00
C5       0.92547    0.35498    0.38291   1.00
H2       0.93493    0.41565    0.39528   1.00
C5       0.75983    0.41748    0.59628   1.00
H2       0.73785    0.41457    0.62005   1.00
H2       0.78048    0.44092    0.60529   1.00
C5       0.78200    0.37888    0.59018   1.00
C5       0.79775    0.36389    0.62948   1.00
H2       0.55714    0.60783    0.34641   1.00
H2       0.56553    0.65799    0.36547   1.00
H2       0.60677    0.62977    0.34422   1.00
H2       0.71895    0.62889    0.68173   1.00
H2       0.74449    0.65938    0.64475   1.00
H2       0.69707    0.63591    0.63252   1.00
H2       0.95613    0.35763    0.37031   1.00
H2       0.92656    0.33741    0.41112   1.00
H2       0.90577    0.33956    0.36100   1.00
H2       0.79366    0.38732    0.65273   1.00
H2       0.78116    0.33646    0.63834   1.00
H2       0.83010    0.35678    0.62648   1.00
C5       1.38218    0.57721    0.60056   1.00
H2       1.39745    0.54993    0.60904   1.00
H2       1.36090    0.58319    0.62427   1.00
C5       1.41194    0.61072    0.59741   1.00
C5       1.42123    0.62768    0.63796   1.00
H2       1.40015    0.63434    0.57849   1.00
O3       1.23000    0.56271    0.46710   1.00
C4       1.27100    0.49958    0.49997   1.00
C3c      1.29243    0.51520    0.53121   1.00
H1       1.27725    0.52747    0.55599   1.00
C3d      1.29135    0.48323    0.46821   1.00
C3       1.33354    0.51579    0.53081   1.00
O2       1.35248    0.52714    0.56435   1.00
C3       1.33227    0.48445    0.46739   1.00
H1       1.34657    0.47281    0.44179   1.00
C2       1.35439    0.50052    0.49854   1.00
C5       1.22879    0.56116    0.42594   1.00
H2       1.19838    0.56251    0.41448   1.00
H2       1.24266    0.53387    0.41483   1.00
C5       1.25129    0.59628    0.41047   1.00
H2       1.28137    0.59553    0.42280   1.00
H2       1.23698    0.62335    0.42144   1.00
C5       1.25262    0.59609    0.36556   1.00
H2       1.22268    0.59656    0.35305   1.00
H2       1.26811    0.56974    0.35461   1.00
C5       1.27445    0.63243    0.35067   1.00
C5       1.26105    0.43075    0.44069   1.00
C5       1.36070    0.56755    0.56281   1.00
H2       1.24088    0.42724    0.46587   1.00
H2       1.28712    0.41184    0.44549   1.00
H2       1.33300    0.58456    0.56091   1.00
H2       1.37895    0.57562    0.53697   1.00
H2       1.44030    0.60024    0.58514   1.00
H2       1.19247    0.38293    0.42965   1.00
H2       1.23763    0.35614    0.42212   1.00
C2       1.14605    0.50091    0.49748   1.00
C3       1.16597    0.46995    0.51596   1.00
O2       1.14674    0.43565    0.52459   1.00
C3       1.16826    0.53198    0.48177   1.00
H1       1.15385    0.55660    0.46834   1.00
C3a      1.20713    0.47017    0.51744   1.00
H1       1.22202    0.44520    0.52970   1.00
C3b      1.20922    0.53151    0.48218   1.00
C4       1.22900    0.50042    0.50003   1.00
O3       1.27167    0.47018    0.43546   1.00
C5       1.13720    0.43435    0.56462   1.00
H2       1.16391    0.43615    0.58321   1.00
C5       1.11674    0.39552    0.57189   1.00
H2       1.11726    0.45877    0.57264   1.00
H2       1.13932    0.37226    0.57416   1.00
H2       1.09907    0.38873    0.54546   1.00
C5       1.09082    0.39597    0.60857   1.00
H2       1.10824    0.40579    0.63410   1.00
C5       1.07453    0.35498    0.61709   1.00
H2       1.06507    0.41565    0.60472   1.00
C5       1.24017    0.41748    0.40372   1.00
H2       1.26215    0.41457    0.37995   1.00
H2       1.21952    0.44092    0.39471   1.00
C5       1.21800    0.37888    0.40982   1.00
C5       1.20225    0.36389    0.37052   1.00
H2       1.44286    0.60783    0.65359   1.00
H2       1.43447    0.65799    0.63453   1.00
H2       1.39323    0.62977    0.65578   1.00
H2       1.28105    0.62889    0.31827   1.00
H2       1.25551    0.65938    0.35525   1.00
H2       1.30293    0.63591    0.36748   1.00
H2       1.04387    0.35763    0.62969   1.00
H2       1.07344    0.33741    0.58888   1.00
H2       1.09423    0.33956    0.63900   1.00
H2       1.20634    0.38732    0.34727   1.00
H2       1.21884    0.33646    0.36166   1.00
H2       1.16990    0.35678    0.37352   1.00
C5       0.89944    0.11782    0.57721   1.00
H2       0.89096    0.10255    0.54993   1.00
H2       0.87573    0.13910    0.58319   1.00
C5       0.90259    0.08806    0.61072   1.00
C5       0.86204    0.07877    0.62768   1.00
H2       0.92151    0.09985    0.63434   1.00
O3       1.03290    0.27000    0.56271   1.00
C4       1.00003    0.22900    0.49958   1.00
C3c      0.96879    0.20757    0.51520   1.00
H1       0.94401    0.22275    0.52747   1.00
C3d      1.03179    0.20865    0.48323   1.00
C3       0.96919    0.16646    0.51579   1.00
O2       0.93565    0.14752    0.52714   1.00
C3       1.03261    0.16773    0.48445   1.00
H1       1.05821    0.15343    0.47281   1.00
C2       1.00146    0.14561    0.50052   1.00
C5       1.07406    0.27121    0.56116   1.00
H2       1.08552    0.30162    0.56251   1.00
H2       1.08517    0.25734    0.53387   1.00
C5       1.08953    0.24871    0.59628   1.00
H2       1.07720    0.21863    0.59553   1.00
H2       1.07856    0.26302    0.62335   1.00
C5       1.13444    0.24738    0.59609   1.00
H2       1.14695    0.27732    0.59656   1.00
H2       1.14539    0.23189    0.56974   1.00
C5       1.14933    0.22555    0.63243   1.00
C5       1.05931    0.23895    0.43075   1.00
C5       0.93719    0.13930    0.56755   1.00
H2       1.03413    0.25912    0.42724   1.00
H2       1.05451    0.21288    0.41184   1.00
H2       0.93909    0.16700    0.58456   1.00
H2       0.96303    0.12105    0.57562   1.00
H2       0.91486    0.05970    0.60024   1.00
H2       1.07035    0.30753    0.38293   1.00
H2       1.07788    0.26237    0.35614   1.00
C2       1.00252    0.35395    0.50091   1.00
C3       0.98404    0.33403    0.46995   1.00
O2       0.97541    0.35326    0.43565   1.00
C3       1.01823    0.33174    0.53198   1.00
H1       1.03166    0.34615    0.55660   1.00
C3a      0.98256    0.29287    0.47017   1.00
H1       0.97030    0.27798    0.44520   1.00
C3b      1.01782    0.29078    0.53151   1.00
C4       0.99997    0.27100    0.50042   1.00
O3       1.06454    0.22833    0.47018   1.00
C5       0.93538    0.36280    0.43435   1.00
H2       0.91679    0.33609    0.43615   1.00
C5       0.92811    0.38326    0.39552   1.00
H2       0.92736    0.38274    0.45877   1.00
H2       0.92584    0.36068    0.37226   1.00
H2       0.95454    0.40093    0.38873   1.00
C5       0.89143    0.40918    0.39597   1.00
H2       0.86590    0.39176    0.40579   1.00
C5       0.88291    0.42547    0.35498   1.00
H2       0.89528    0.43493    0.41565   1.00
C5       1.09628    0.25983    0.41748   1.00
H2       1.12005    0.23785    0.41457   1.00
H2       1.10529    0.28048    0.44092   1.00
C5       1.09018    0.28200    0.37888   1.00
C5       1.12948    0.29775    0.36389   1.00
H2       0.84641    0.05714    0.60783   1.00
H2       0.86547    0.06553    0.65799   1.00
H2       0.84422    0.10677    0.62977   1.00
H2       1.18173    0.21895    0.62889   1.00
H2       1.14475    0.24449    0.65938   1.00
H2       1.13252    0.19707    0.63591   1.00
H2       0.87031    0.45613    0.35763   1.00
H2       0.91112    0.42656    0.33741   1.00
H2       0.86100    0.40577    0.33956   1.00
H2       1.15273    0.29366    0.38732   1.00
H2       1.13834    0.28116    0.33646   1.00
H2       1.12648    0.33010    0.35678   1.00
C5       1.07721    0.39944    0.11782   1.00
H2       1.04993    0.39096    0.10255   1.00
H2       1.08319    0.37573    0.13910   1.00
C5       1.11072    0.40259    0.08806   1.00
C5       1.12768    0.36204    0.07877   1.00
H2       1.13434    0.42151    0.09985   1.00
O3       1.06271    0.53290    0.27000   1.00
C4       0.99958    0.50003    0.22900   1.00
C3c      1.01520    0.46879    0.20757   1.00
H1       1.02747    0.44401    0.22275   1.00
C3d      0.98323    0.53179    0.20865   1.00
C3       1.01579    0.46919    0.16646   1.00
O2       1.02714    0.43565    0.14752   1.00
C3       0.98445    0.53261    0.16773   1.00
H1       0.97281    0.55821    0.15343   1.00
C2       1.00052    0.50146    0.14561   1.00
C5       1.06116    0.57406    0.27121   1.00
H2       1.06251    0.58552    0.30162   1.00
H2       1.03387    0.58517    0.25734   1.00
C5       1.09628    0.58953    0.24871   1.00
H2       1.09553    0.57720    0.21863   1.00
H2       1.12335    0.57856    0.26302   1.00
C5       1.09609    0.63444    0.24738   1.00
H2       1.09656    0.64695    0.27732   1.00
H2       1.06974    0.64539    0.23189   1.00
C5       1.13243    0.64933    0.22555   1.00
C5       0.93075    0.55931    0.23895   1.00
C5       1.06755    0.43719    0.13930   1.00
H2       0.92724    0.53413    0.25912   1.00
H2       0.91184    0.55451    0.21288   1.00
H2       1.08456    0.43909    0.16700   1.00
H2       1.07562    0.46303    0.12105   1.00
H2       1.10024    0.41486    0.05970   1.00
H2       0.88293    0.57035    0.30753   1.00
H2       0.85614    0.57788    0.26237   1.00
C2       1.00091    0.50252    0.35395   1.00
C3       0.96995    0.48404    0.33403   1.00
O2       0.93565    0.47541    0.35326   1.00
C3       1.03198    0.51823    0.33174   1.00
H1       1.05660    0.53166    0.34615   1.00
C3a      0.97017    0.48256    0.29287   1.00
H1       0.94520    0.47030    0.27798   1.00
C3b      1.03151    0.51782    0.29078   1.00
C4       1.00042    0.49997    0.27100   1.00
O3       0.97018    0.56454    0.22833   1.00
C5       0.93435    0.43538    0.36280   1.00
H2       0.93615    0.41679    0.33609   1.00
C5       0.89552    0.42811    0.38326   1.00
H2       0.95877    0.42736    0.38274   1.00
H2       0.87226    0.42584    0.36068   1.00
H2       0.88873    0.45454    0.40093   1.00
C5       0.89597    0.39143    0.40918   1.00
H2       0.90579    0.36590    0.39176   1.00
C5       0.85498    0.38291    0.42547   1.00
H2       0.91565    0.39528    0.43493   1.00
C5       0.91748    0.59628    0.25983   1.00
H2       0.91457    0.62005    0.23785   1.00
H2       0.94092    0.60529    0.28048   1.00
C5       0.87888    0.59018    0.28200   1.00
C5       0.86389    0.62948    0.29775   1.00
H2       1.10783    0.34641    0.05714   1.00
H2       1.15799    0.36547    0.06553   1.00
H2       1.12977    0.34422    0.10677   1.00
H2       1.12889    0.68173    0.21895   1.00
H2       1.15938    0.64475    0.24449   1.00
H2       1.13591    0.63252    0.19707   1.00
H2       0.85763    0.37031    0.45613   1.00
H2       0.83741    0.41112    0.42656   1.00
H2       0.83956    0.36100    0.40577   1.00
H2       0.88732    0.65273    0.29366   1.00
H2       0.83646    0.63834    0.28116   1.00
H2       0.85678    0.62648    0.33010   1.00
