data_IRMOF10_SG202_interpen_Ligand11lp_label_b.

_audit_creation_method             'generated by an auxiliary program of Tobunporous'

_symmetry_space_group_name_H-M     'P 1'
_symmetry_Int_Tables_number        1
_symmetry_cell_setting             triclinic

_cell_length_a                    34.2800
_cell_length_b                    34.2800
_cell_length_c                    34.2800
_cell_angle_alpha                 90.0000
_cell_angle_beta                  90.0000
_cell_angle_gamma                 90.0000

loop_
_atom_site_label
_atom_site_fract_x
_atom_site_fract_y
_atom_site_fract_z
_atom_site_occupancy
O1       0.75000    0.75000    0.75000   1.00
Zn1      0.71720    0.78280    0.78280   1.00
Zn1      0.78280    0.71720    0.78280   1.00
Zn1      0.78280    0.78280    0.71720   1.00
Zn1      0.71720    0.71720    0.71720   1.00
O2       0.72650    0.77350    0.83820   1.00
O2       0.72650    0.83820    0.77350   1.00
O2       0.66180    0.77350    0.77350   1.00
O2       0.77350    0.72650    0.83820   1.00
O2       0.83820    0.72650    0.77350   1.00
O2       0.77350    0.66180    0.77350   1.00
O2       0.77350    0.83820    0.72650   1.00
O2       0.83820    0.77350    0.72650   1.00
O2       0.77350    0.77350    0.66180   1.00
O2       0.66180    0.72650    0.72650   1.00
O2       0.72650    0.66180    0.72650   1.00
O2       0.72650    0.72650    0.66180   1.00
C1       0.75000    0.75000    0.85520   1.00
C1       0.75000    0.85520    0.75000   1.00
C1       0.64480    0.75000    0.75000   1.00
C1       0.85520    0.75000    0.75000   1.00
C1       0.75000    0.64480    0.75000   1.00
C1       0.75000    0.75000    0.64480   1.00
O1       0.25000    0.25000    0.75000   1.00
Zn1      0.21720    0.28280    0.78280   1.00
Zn1      0.28280    0.21720    0.78280   1.00
Zn1      0.28280    0.28280    0.71720   1.00
Zn1      0.21720    0.21720    0.71720   1.00
O2       0.22650    0.27350    0.83820   1.00
O2       0.22650    0.33820    0.77350   1.00
O2       0.16180    0.27350    0.77350   1.00
O2       0.27350    0.22650    0.83820   1.00
O2       0.33820    0.22650    0.77350   1.00
O2       0.27350    0.16180    0.77350   1.00
O2       0.27350    0.33820    0.72650   1.00
O2       0.33820    0.27350    0.72650   1.00
O2       0.27350    0.27350    0.66180   1.00
O2       0.16180    0.22650    0.72650   1.00
O2       0.22650    0.16180    0.72650   1.00
O2       0.22650    0.22650    0.66180   1.00
C1       0.25000    0.25000    0.85520   1.00
C1       0.25000    0.35520    0.75000   1.00
C1       0.14480    0.25000    0.75000   1.00
C1       0.35520    0.25000    0.75000   1.00
C1       0.25000    0.14480    0.75000   1.00
C1       0.25000    0.25000    0.64480   1.00
O1       0.25000    0.75000    0.25000   1.00
Zn1      0.21720    0.78280    0.28280   1.00
Zn1      0.28280    0.71720    0.28280   1.00
Zn1      0.28280    0.78280    0.21720   1.00
Zn1      0.21720    0.71720    0.21720   1.00
O2       0.22650    0.77350    0.33820   1.00
O2       0.22650    0.83820    0.27350   1.00
O2       0.16180    0.77350    0.27350   1.00
O2       0.27350    0.72650    0.33820   1.00
O2       0.33820    0.72650    0.27350   1.00
O2       0.27350    0.66180    0.27350   1.00
O2       0.27350    0.83820    0.22650   1.00
O2       0.33820    0.77350    0.22650   1.00
O2       0.27350    0.77350    0.16180   1.00
O2       0.16180    0.72650    0.22650   1.00
O2       0.22650    0.66180    0.22650   1.00
O2       0.22650    0.72650    0.16180   1.00
C1       0.25000    0.75000    0.35520   1.00
C1       0.25000    0.85520    0.25000   1.00
C1       0.14480    0.75000    0.25000   1.00
C1       0.35520    0.75000    0.25000   1.00
C1       0.25000    0.64480    0.25000   1.00
C1       0.25000    0.75000    0.14480   1.00
O1       0.75000    0.25000    0.25000   1.00
Zn1      0.71720    0.28280    0.28280   1.00
Zn1      0.78280    0.21720    0.28280   1.00
Zn1      0.78280    0.28280    0.21720   1.00
Zn1      0.71720    0.21720    0.21720   1.00
O2       0.72650    0.27350    0.33820   1.00
O2       0.72650    0.33820    0.27350   1.00
O2       0.66180    0.27350    0.27350   1.00
O2       0.77350    0.22650    0.33820   1.00
O2       0.83820    0.22650    0.27350   1.00
O2       0.77350    0.16180    0.27350   1.00
O2       0.77350    0.33820    0.22650   1.00
O2       0.83820    0.27350    0.22650   1.00
O2       0.77350    0.27350    0.16180   1.00
O2       0.66180    0.22650    0.22650   1.00
O2       0.72650    0.16180    0.22650   1.00
O2       0.72650    0.22650    0.16180   1.00
C1       0.75000    0.25000    0.35520   1.00
C1       0.75000    0.35520    0.25000   1.00
C1       0.64480    0.25000    0.25000   1.00
C1       0.85520    0.25000    0.25000   1.00
C1       0.75000    0.14480    0.25000   1.00
C1       0.75000    0.25000    0.14480   1.00
O1       0.25000    0.25000    0.25000   1.00
Zn1      0.28280    0.21720    0.21720   1.00
Zn1      0.21720    0.28280    0.21720   1.00
Zn1      0.21720    0.21720    0.28280   1.00
Zn1      0.28280    0.28280    0.28280   1.00
O2       0.27350    0.22650    0.16180   1.00
O2       0.27350    0.16180    0.22650   1.00
O2       0.33820    0.22650    0.22650   1.00
O2       0.22650    0.27350    0.16180   1.00
O2       0.16180    0.27350    0.22650   1.00
O2       0.22650    0.33820    0.22650   1.00
O2       0.22650    0.16180    0.27350   1.00
O2       0.16180    0.22650    0.27350   1.00
O2       0.22650    0.22650    0.33820   1.00
O2       0.33820    0.27350    0.27350   1.00
O2       0.27350    0.33820    0.27350   1.00
O2       0.27350    0.27350    0.33820   1.00
C1       0.25000    0.25000    0.14480   1.00
C1       0.25000    0.14480    0.25000   1.00
C1       0.35520    0.25000    0.25000   1.00
C1       0.14480    0.25000    0.25000   1.00
C1       0.25000    0.35520    0.25000   1.00
C1       0.25000    0.25000    0.35520   1.00
O1       0.75000    0.75000    0.25000   1.00
Zn1      0.78280    0.71720    0.21720   1.00
Zn1      0.71720    0.78280    0.21720   1.00
Zn1      0.71720    0.71720    0.28280   1.00
Zn1      0.78280    0.78280    0.28280   1.00
O2       0.77350    0.72650    0.16180   1.00
O2       0.77350    0.66180    0.22650   1.00
O2       0.83820    0.72650    0.22650   1.00
O2       0.72650    0.77350    0.16180   1.00
O2       0.66180    0.77350    0.22650   1.00
O2       0.72650    0.83820    0.22650   1.00
O2       0.72650    0.66180    0.27350   1.00
O2       0.66180    0.72650    0.27350   1.00
O2       0.72650    0.72650    0.33820   1.00
O2       0.83820    0.77350    0.27350   1.00
O2       0.77350    0.83820    0.27350   1.00
O2       0.77350    0.77350    0.33820   1.00
C1       0.75000    0.75000    0.14480   1.00
C1       0.75000    0.64480    0.25000   1.00
C1       0.85520    0.75000    0.25000   1.00
C1       0.64480    0.75000    0.25000   1.00
C1       0.75000    0.85520    0.25000   1.00
C1       0.75000    0.75000    0.35520   1.00
O1       0.75000    0.25000    0.75000   1.00
Zn1      0.78280    0.21720    0.71720   1.00
Zn1      0.71720    0.28280    0.71720   1.00
Zn1      0.71720    0.21720    0.78280   1.00
Zn1      0.78280    0.28280    0.78280   1.00
O2       0.77350    0.22650    0.66180   1.00
O2       0.77350    0.16180    0.72650   1.00
O2       0.83820    0.22650    0.72650   1.00
O2       0.72650    0.27350    0.66180   1.00
O2       0.66180    0.27350    0.72650   1.00
O2       0.72650    0.33820    0.72650   1.00
O2       0.72650    0.16180    0.77350   1.00
O2       0.66180    0.22650    0.77350   1.00
O2       0.72650    0.22650    0.83820   1.00
O2       0.83820    0.27350    0.77350   1.00
O2       0.77350    0.33820    0.77350   1.00
O2       0.77350    0.27350    0.83820   1.00
C1       0.75000    0.25000    0.64480   1.00
C1       0.75000    0.14480    0.75000   1.00
C1       0.85520    0.25000    0.75000   1.00
C1       0.64480    0.25000    0.75000   1.00
C1       0.75000    0.35520    0.75000   1.00
C1       0.75000    0.25000    0.85520   1.00
O1       0.25000    0.75000    0.75000   1.00
Zn1      0.28280    0.71720    0.71720   1.00
Zn1      0.21720    0.78280    0.71720   1.00
Zn1      0.21720    0.71720    0.78280   1.00
Zn1      0.28280    0.78280    0.78280   1.00
O2       0.27350    0.72650    0.66180   1.00
O2       0.27350    0.66180    0.72650   1.00
O2       0.33820    0.72650    0.72650   1.00
O2       0.22650    0.77350    0.66180   1.00
O2       0.16180    0.77350    0.72650   1.00
O2       0.22650    0.83820    0.72650   1.00
O2       0.22650    0.66180    0.77350   1.00
O2       0.16180    0.72650    0.77350   1.00
O2       0.22650    0.72650    0.83820   1.00
O2       0.33820    0.77350    0.77350   1.00
O2       0.27350    0.83820    0.77350   1.00
O2       0.27350    0.77350    0.83820   1.00
C1       0.25000    0.75000    0.64480   1.00
C1       0.25000    0.64480    0.75000   1.00
C1       0.35520    0.75000    0.75000   1.00
C1       0.14480    0.75000    0.75000   1.00
C1       0.25000    0.85520    0.75000   1.00
C1       0.25000    0.75000    0.85520   1.00
O1       1.00000    1.00000    1.00000   1.00
Zn1      0.96720    1.03280    1.03280   1.00
Zn1      1.03280    0.96720    1.03280   1.00
Zn1      1.03280    1.03280    0.96720   1.00
Zn1      0.96720    0.96720    0.96720   1.00
O2       0.97650    1.02350    1.08820   1.00
O2       0.97650    1.08820    1.02350   1.00
O2       0.91180    1.02350    1.02350   1.00
O2       1.02350    0.97650    1.08820   1.00
O2       1.08820    0.97650    1.02350   1.00
O2       1.02350    0.91180    1.02350   1.00
O2       1.02350    1.08820    0.97650   1.00
O2       1.08820    1.02350    0.97650   1.00
O2       1.02350    1.02350    0.91180   1.00
O2       0.91180    0.97650    0.97650   1.00
O2       0.97650    0.91180    0.97650   1.00
O2       0.97650    0.97650    0.91180   1.00
C1       1.00000    1.00000    1.10520   1.00
C1       1.00000    1.10520    1.00000   1.00
C1       0.89480    1.00000    1.00000   1.00
C1       1.10520    1.00000    1.00000   1.00
C1       1.00000    0.89480    1.00000   1.00
C1       1.00000    1.00000    0.89480   1.00
O1       0.50000    0.50000    1.00000   1.00
Zn1      0.46720    0.53280    1.03280   1.00
Zn1      0.53280    0.46720    1.03280   1.00
Zn1      0.53280    0.53280    0.96720   1.00
Zn1      0.46720    0.46720    0.96720   1.00
O2       0.47650    0.52350    1.08820   1.00
O2       0.47650    0.58820    1.02350   1.00
O2       0.41180    0.52350    1.02350   1.00
O2       0.52350    0.47650    1.08820   1.00
O2       0.58820    0.47650    1.02350   1.00
O2       0.52350    0.41180    1.02350   1.00
O2       0.52350    0.58820    0.97650   1.00
O2       0.58820    0.52350    0.97650   1.00
O2       0.52350    0.52350    0.91180   1.00
O2       0.41180    0.47650    0.97650   1.00
O2       0.47650    0.41180    0.97650   1.00
O2       0.47650    0.47650    0.91180   1.00
C1       0.50000    0.50000    1.10520   1.00
C1       0.50000    0.60520    1.00000   1.00
C1       0.39480    0.50000    1.00000   1.00
C1       0.60520    0.50000    1.00000   1.00
C1       0.50000    0.39480    1.00000   1.00
C1       0.50000    0.50000    0.89480   1.00
O1       0.50000    1.00000    0.50000   1.00
Zn1      0.46720    1.03280    0.53280   1.00
Zn1      0.53280    0.96720    0.53280   1.00
Zn1      0.53280    1.03280    0.46720   1.00
Zn1      0.46720    0.96720    0.46720   1.00
O2       0.47650    1.02350    0.58820   1.00
O2       0.47650    1.08820    0.52350   1.00
O2       0.41180    1.02350    0.52350   1.00
O2       0.52350    0.97650    0.58820   1.00
O2       0.58820    0.97650    0.52350   1.00
O2       0.52350    0.91180    0.52350   1.00
O2       0.52350    1.08820    0.47650   1.00
O2       0.58820    1.02350    0.47650   1.00
O2       0.52350    1.02350    0.41180   1.00
O2       0.41180    0.97650    0.47650   1.00
O2       0.47650    0.91180    0.47650   1.00
O2       0.47650    0.97650    0.41180   1.00
C1       0.50000    1.00000    0.60520   1.00
C1       0.50000    1.10520    0.50000   1.00
C1       0.39480    1.00000    0.50000   1.00
C1       0.60520    1.00000    0.50000   1.00
C1       0.50000    0.89480    0.50000   1.00
C1       0.50000    1.00000    0.39480   1.00
O1       1.00000    0.50000    0.50000   1.00
Zn1      0.96720    0.53280    0.53280   1.00
Zn1      1.03280    0.46720    0.53280   1.00
Zn1      1.03280    0.53280    0.46720   1.00
Zn1      0.96720    0.46720    0.46720   1.00
O2       0.97650    0.52350    0.58820   1.00
O2       0.97650    0.58820    0.52350   1.00
O2       0.91180    0.52350    0.52350   1.00
O2       1.02350    0.47650    0.58820   1.00
O2       1.08820    0.47650    0.52350   1.00
O2       1.02350    0.41180    0.52350   1.00
O2       1.02350    0.58820    0.47650   1.00
O2       1.08820    0.52350    0.47650   1.00
O2       1.02350    0.52350    0.41180   1.00
O2       0.91180    0.47650    0.47650   1.00
O2       0.97650    0.41180    0.47650   1.00
O2       0.97650    0.47650    0.41180   1.00
C1       1.00000    0.50000    0.60520   1.00
C1       1.00000    0.60520    0.50000   1.00
C1       0.89480    0.50000    0.50000   1.00
C1       1.10520    0.50000    0.50000   1.00
C1       1.00000    0.39480    0.50000   1.00
C1       1.00000    0.50000    0.39480   1.00
O1       0.50000    0.50000    0.50000   1.00
Zn1      0.53280    0.46720    0.46720   1.00
Zn1      0.46720    0.53280    0.46720   1.00
Zn1      0.46720    0.46720    0.53280   1.00
Zn1      0.53280    0.53280    0.53280   1.00
O2       0.52350    0.47650    0.41180   1.00
O2       0.52350    0.41180    0.47650   1.00
O2       0.58820    0.47650    0.47650   1.00
O2       0.47650    0.52350    0.41180   1.00
O2       0.41180    0.52350    0.47650   1.00
O2       0.47650    0.58820    0.47650   1.00
O2       0.47650    0.41180    0.52350   1.00
O2       0.41180    0.47650    0.52350   1.00
O2       0.47650    0.47650    0.58820   1.00
O2       0.58820    0.52350    0.52350   1.00
O2       0.52350    0.58820    0.52350   1.00
O2       0.52350    0.52350    0.58820   1.00
C1       0.50000    0.50000    0.39480   1.00
C1       0.50000    0.39480    0.50000   1.00
C1       0.60520    0.50000    0.50000   1.00
C1       0.39480    0.50000    0.50000   1.00
C1       0.50000    0.60520    0.50000   1.00
C1       0.50000    0.50000    0.60520   1.00
O1       1.00000    1.00000    0.50000   1.00
Zn1      1.03280    0.96720    0.46720   1.00
Zn1      0.96720    1.03280    0.46720   1.00
Zn1      0.96720    0.96720    0.53280   1.00
Zn1      1.03280    1.03280    0.53280   1.00
O2       1.02350    0.97650    0.41180   1.00
O2       1.02350    0.91180    0.47650   1.00
O2       1.08820    0.97650    0.47650   1.00
O2       0.97650    1.02350    0.41180   1.00
O2       0.91180    1.02350    0.47650   1.00
O2       0.97650    1.08820    0.47650   1.00
O2       0.97650    0.91180    0.52350   1.00
O2       0.91180    0.97650    0.52350   1.00
O2       0.97650    0.97650    0.58820   1.00
O2       1.08820    1.02350    0.52350   1.00
O2       1.02350    1.08820    0.52350   1.00
O2       1.02350    1.02350    0.58820   1.00
C1       1.00000    1.00000    0.39480   1.00
C1       1.00000    0.89480    0.50000   1.00
C1       1.10520    1.00000    0.50000   1.00
C1       0.89480    1.00000    0.50000   1.00
C1       1.00000    1.10520    0.50000   1.00
C1       1.00000    1.00000    0.60520   1.00
O1       1.00000    0.50000    1.00000   1.00
Zn1      1.03280    0.46720    0.96720   1.00
Zn1      0.96720    0.53280    0.96720   1.00
Zn1      0.96720    0.46720    1.03280   1.00
Zn1      1.03280    0.53280    1.03280   1.00
O2       1.02350    0.47650    0.91180   1.00
O2       1.02350    0.41180    0.97650   1.00
O2       1.08820    0.47650    0.97650   1.00
O2       0.97650    0.52350    0.91180   1.00
O2       0.91180    0.52350    0.97650   1.00
O2       0.97650    0.58820    0.97650   1.00
O2       0.97650    0.41180    1.02350   1.00
O2       0.91180    0.47650    1.02350   1.00
O2       0.97650    0.47650    1.08820   1.00
O2       1.08820    0.52350    1.02350   1.00
O2       1.02350    0.58820    1.02350   1.00
O2       1.02350    0.52350    1.08820   1.00
C1       1.00000    0.50000    0.89480   1.00
C1       1.00000    0.39480    1.00000   1.00
C1       1.10520    0.50000    1.00000   1.00
C1       0.89480    0.50000    1.00000   1.00
C1       1.00000    0.60520    1.00000   1.00
C1       1.00000    0.50000    1.10520   1.00
O1       0.50000    1.00000    1.00000   1.00
Zn1      0.53280    0.96720    0.96720   1.00
Zn1      0.46720    1.03280    0.96720   1.00
Zn1      0.46720    0.96720    1.03280   1.00
Zn1      0.53280    1.03280    1.03280   1.00
O2       0.52350    0.97650    0.91180   1.00
O2       0.52350    0.91180    0.97650   1.00
O2       0.58820    0.97650    0.97650   1.00
O2       0.47650    1.02350    0.91180   1.00
O2       0.41180    1.02350    0.97650   1.00
O2       0.47650    1.08820    0.97650   1.00
O2       0.47650    0.91180    1.02350   1.00
O2       0.41180    0.97650    1.02350   1.00
O2       0.47650    0.97650    1.08820   1.00
O2       0.58820    1.02350    1.02350   1.00
O2       0.52350    1.08820    1.02350   1.00
O2       0.52350    1.02350    1.08820   1.00
C1       0.50000    1.00000    0.89480   1.00
C1       0.50000    0.89480    1.00000   1.00
C1       0.60520    1.00000    1.00000   1.00
C1       0.39480    1.00000    1.00000   1.00
C1       0.50000    1.10520    1.00000   1.00
C1       0.50000    1.00000    1.10520   1.00
C4       0.75012    0.75015    0.97915   1.00
C4       0.74988    0.74985    1.02085   1.00
C3a      0.74942    0.78573    0.95746   1.00
C3       0.78430    0.75682    1.04232   1.00
C3       0.75120    0.71505    0.95768   1.00
C3a      0.71508    0.74241    1.04254   1.00
C2       0.75007    0.74995    0.89488   1.00
C2       0.75006    0.74995    1.10512   1.00
C3       0.74932    0.78505    0.91595   1.00
C3       0.78432    0.75697    1.08363   1.00
C3       0.75105    0.71499    0.91637   1.00
C3       0.71572    0.74265    1.08405   1.00
C5       0.74813    0.82494    0.97772   1.00
H1       0.81129    0.76257    1.02691   1.00
H1       0.74858    0.81216    0.89979   1.00
H1       0.81131    0.76267    1.09901   1.00
H1       0.75167    0.68742    0.90099   1.00
H1       0.68916    0.73718    1.10021   1.00
C5       0.67661    0.73470    1.02228   1.00
H1       0.75176    0.68746    0.97309   1.00
H2       0.65209    0.74080    1.04256   1.00
H2       0.67284    0.75501    0.99731   1.00
H2       0.73659    0.84743    0.95744   1.00
H2       0.72750    0.82397    1.00269   1.00
N1       0.67434    0.69432    1.00857   1.00
C6       0.67308    0.66227    1.03073   1.00
C6       0.67201    0.68251    0.97154   1.00
C6       0.67044    0.62954    1.00759   1.00
C6       0.66975    0.64241    0.96995   1.00
H3       0.67435    0.66248    1.06197   1.00
H3       0.67226    0.70183    0.94700   1.00
H3       0.66913    0.59963    1.01713   1.00
H3       0.66785    0.62455    0.94425   1.00
N1       0.78692    0.83638    0.99143   1.00
C6       0.79789    0.84134    1.02846   1.00
C6       0.81784    0.84492    0.96927   1.00
C6       0.83641    0.85270    1.03005   1.00
C6       0.84910    0.85497    0.99241   1.00
H3       0.77914    0.83669    1.05300   1.00
H3       0.81793    0.84364    0.93803   1.00
H3       0.85337    0.85864    1.05575   1.00
H3       0.87792    0.86309    0.98287   1.00
C4       0.75015    0.97915    0.75012   1.00
C4       0.74985    1.02085    0.74988   1.00
C3a      0.78573    0.95746    0.74942   1.00
C3       0.75682    1.04232    0.78430   1.00
C3       0.71505    0.95768    0.75120   1.00
C3a      0.74241    1.04254    0.71508   1.00
C2       0.74995    0.89488    0.75007   1.00
C2       0.74995    1.10512    0.75006   1.00
C3       0.78505    0.91595    0.74932   1.00
C3       0.75697    1.08363    0.78432   1.00
C3       0.71499    0.91637    0.75105   1.00
C3       0.74265    1.08405    0.71572   1.00
C5       0.82494    0.97772    0.74813   1.00
H1       0.76257    1.02691    0.81129   1.00
H1       0.81216    0.89979    0.74858   1.00
H1       0.76267    1.09901    0.81131   1.00
H1       0.68742    0.90099    0.75167   1.00
H1       0.73718    1.10021    0.68916   1.00
C5       0.73470    1.02228    0.67661   1.00
H1       0.68746    0.97309    0.75176   1.00
H2       0.74080    1.04256    0.65209   1.00
H2       0.75501    0.99731    0.67284   1.00
H2       0.84743    0.95744    0.73659   1.00
H2       0.82397    1.00269    0.72750   1.00
N1       0.69432    1.00857    0.67434   1.00
C6       0.66227    1.03073    0.67308   1.00
C6       0.68251    0.97154    0.67201   1.00
C6       0.62954    1.00759    0.67044   1.00
C6       0.64241    0.96995    0.66975   1.00
H3       0.66248    1.06197    0.67435   1.00
H3       0.70183    0.94700    0.67226   1.00
H3       0.59963    1.01713    0.66913   1.00
H3       0.62455    0.94425    0.66785   1.00
N1       0.83638    0.99143    0.78692   1.00
C6       0.84134    1.02846    0.79789   1.00
C6       0.84492    0.96927    0.81784   1.00
C6       0.85270    1.03005    0.83641   1.00
C6       0.85497    0.99241    0.84910   1.00
H3       0.83669    1.05300    0.77914   1.00
H3       0.84364    0.93803    0.81793   1.00
H3       0.85864    1.05575    0.85337   1.00
H3       0.86309    0.98287    0.87792   1.00
C4       0.52085    0.75012    0.74985   1.00
C4       0.47915    0.74988    0.75015   1.00
C3a      0.54254    0.74942    0.71427   1.00
C3       0.45768    0.78430    0.74318   1.00
C3       0.54232    0.75120    0.78495   1.00
C3a      0.45746    0.71508    0.75759   1.00
C2       0.60512    0.75007    0.75005   1.00
C2       0.39488    0.75006    0.75005   1.00
C3       0.58405    0.74932    0.71495   1.00
C3       0.41637    0.78432    0.74303   1.00
C3       0.58363    0.75105    0.78501   1.00
C3       0.41595    0.71572    0.75735   1.00
C5       0.52228    0.74813    0.67506   1.00
H1       0.47309    0.81129    0.73743   1.00
H1       0.60021    0.74858    0.68784   1.00
H1       0.40099    0.81131    0.73733   1.00
H1       0.59901    0.75167    0.81258   1.00
H1       0.39979    0.68916    0.76282   1.00
C5       0.47772    0.67661    0.76530   1.00
H1       0.52691    0.75176    0.81254   1.00
H2       0.45744    0.65209    0.75920   1.00
H2       0.50269    0.67284    0.74499   1.00
H2       0.54256    0.73659    0.65257   1.00
H2       0.49731    0.72750    0.67603   1.00
N1       0.49143    0.67434    0.80568   1.00
C6       0.46927    0.67308    0.83773   1.00
C6       0.52846    0.67201    0.81749   1.00
C6       0.49241    0.67044    0.87046   1.00
C6       0.53005    0.66975    0.85759   1.00
H3       0.43803    0.67435    0.83752   1.00
H3       0.55300    0.67226    0.79817   1.00
H3       0.48287    0.66913    0.90037   1.00
H3       0.55575    0.66785    0.87545   1.00
N1       0.50857    0.78692    0.66362   1.00
C6       0.47154    0.79789    0.65866   1.00
C6       0.53073    0.81784    0.65508   1.00
C6       0.46995    0.83641    0.64730   1.00
C6       0.50759    0.84910    0.64503   1.00
H3       0.44700    0.77914    0.66331   1.00
H3       0.56197    0.81793    0.65636   1.00
H3       0.44425    0.85337    0.64136   1.00
H3       0.51713    0.87792    0.63691   1.00
C4       0.97915    0.75012    0.75015   1.00
C4       1.02085    0.74988    0.74985   1.00
C3a      0.95746    0.74942    0.78573   1.00
C3       1.04232    0.78430    0.75682   1.00
C3       0.95768    0.75120    0.71505   1.00
C3a      1.04254    0.71508    0.74241   1.00
C2       0.89488    0.75007    0.74995   1.00
C2       1.10512    0.75006    0.74995   1.00
C3       0.91595    0.74932    0.78505   1.00
C3       1.08363    0.78432    0.75697   1.00
C3       0.91637    0.75105    0.71499   1.00
C3       1.08405    0.71572    0.74265   1.00
C5       0.97772    0.74813    0.82494   1.00
H1       1.02691    0.81129    0.76257   1.00
H1       0.89979    0.74858    0.81216   1.00
H1       1.09901    0.81131    0.76267   1.00
H1       0.90099    0.75167    0.68742   1.00
H1       1.10021    0.68916    0.73718   1.00
C5       1.02228    0.67661    0.73470   1.00
H1       0.97309    0.75176    0.68746   1.00
H2       1.04256    0.65209    0.74080   1.00
H2       0.99731    0.67284    0.75501   1.00
H2       0.95744    0.73659    0.84743   1.00
H2       1.00269    0.72750    0.82397   1.00
N1       1.00857    0.67434    0.69432   1.00
C6       1.03073    0.67308    0.66227   1.00
C6       0.97154    0.67201    0.68251   1.00
C6       1.00759    0.67044    0.62954   1.00
C6       0.96995    0.66975    0.64241   1.00
H3       1.06197    0.67435    0.66248   1.00
H3       0.94700    0.67226    0.70183   1.00
H3       1.01713    0.66913    0.59963   1.00
H3       0.94425    0.66785    0.62455   1.00
N1       0.99143    0.78692    0.83638   1.00
C6       1.02846    0.79789    0.84134   1.00
C6       0.96927    0.81784    0.84492   1.00
C6       1.03005    0.83641    0.85270   1.00
C6       0.99241    0.84910    0.85497   1.00
H3       1.05300    0.77914    0.83669   1.00
H3       0.93803    0.81793    0.84364   1.00
H3       1.05575    0.85337    0.85864   1.00
H3       0.98287    0.87792    0.86309   1.00
C4       0.74985    0.52085    0.75012   1.00
C4       0.75015    0.47915    0.74988   1.00
C3a      0.71427    0.54254    0.74942   1.00
C3       0.74318    0.45768    0.78430   1.00
C3       0.78495    0.54232    0.75120   1.00
C3a      0.75759    0.45746    0.71508   1.00
C2       0.75005    0.60512    0.75007   1.00
C2       0.75005    0.39488    0.75006   1.00
C3       0.71495    0.58405    0.74932   1.00
C3       0.74303    0.41637    0.78432   1.00
C3       0.78501    0.58363    0.75105   1.00
C3       0.75735    0.41595    0.71572   1.00
C5       0.67506    0.52228    0.74813   1.00
H1       0.73743    0.47309    0.81129   1.00
H1       0.68784    0.60021    0.74858   1.00
H1       0.73733    0.40099    0.81131   1.00
H1       0.81258    0.59901    0.75167   1.00
H1       0.76282    0.39979    0.68916   1.00
C5       0.76530    0.47772    0.67661   1.00
H1       0.81254    0.52691    0.75176   1.00
H2       0.75920    0.45744    0.65209   1.00
H2       0.74499    0.50269    0.67284   1.00
H2       0.65257    0.54256    0.73659   1.00
H2       0.67603    0.49731    0.72750   1.00
N1       0.80568    0.49143    0.67434   1.00
C6       0.83773    0.46927    0.67308   1.00
C6       0.81749    0.52846    0.67201   1.00
C6       0.87046    0.49241    0.67044   1.00
C6       0.85759    0.53005    0.66975   1.00
H3       0.83752    0.43803    0.67435   1.00
H3       0.79817    0.55300    0.67226   1.00
H3       0.90037    0.48287    0.66913   1.00
H3       0.87545    0.55575    0.66785   1.00
N1       0.66362    0.50857    0.78692   1.00
C6       0.65866    0.47154    0.79789   1.00
C6       0.65508    0.53073    0.81784   1.00
C6       0.64730    0.46995    0.83641   1.00
C6       0.64503    0.50759    0.84910   1.00
H3       0.66331    0.44700    0.77914   1.00
H3       0.65636    0.56197    0.81793   1.00
H3       0.64136    0.44425    0.85337   1.00
H3       0.63691    0.51713    0.87792   1.00
C4       0.75012    0.74985    0.52085   1.00
C4       0.74988    0.75015    0.47915   1.00
C3a      0.74942    0.71427    0.54254   1.00
C3       0.78430    0.74318    0.45768   1.00
C3       0.75120    0.78495    0.54232   1.00
C3a      0.71508    0.75759    0.45746   1.00
C2       0.75007    0.75005    0.60512   1.00
C2       0.75006    0.75005    0.39488   1.00
C3       0.74932    0.71495    0.58405   1.00
C3       0.78432    0.74303    0.41637   1.00
C3       0.75105    0.78501    0.58363   1.00
C3       0.71572    0.75735    0.41595   1.00
C5       0.74813    0.67506    0.52228   1.00
H1       0.81129    0.73743    0.47309   1.00
H1       0.74858    0.68784    0.60021   1.00
H1       0.81131    0.73733    0.40099   1.00
H1       0.75167    0.81258    0.59901   1.00
H1       0.68916    0.76282    0.39979   1.00
C5       0.67661    0.76530    0.47772   1.00
H1       0.75176    0.81254    0.52691   1.00
H2       0.65209    0.75920    0.45744   1.00
H2       0.67284    0.74499    0.50269   1.00
H2       0.73659    0.65257    0.54256   1.00
H2       0.72750    0.67603    0.49731   1.00
N1       0.67434    0.80568    0.49143   1.00
C6       0.67308    0.83773    0.46927   1.00
C6       0.67201    0.81749    0.52846   1.00
C6       0.67044    0.87046    0.49241   1.00
C6       0.66975    0.85759    0.53005   1.00
H3       0.67435    0.83752    0.43803   1.00
H3       0.67226    0.79817    0.55300   1.00
H3       0.66913    0.90037    0.48287   1.00
H3       0.66785    0.87545    0.55575   1.00
N1       0.78692    0.66362    0.50857   1.00
C6       0.79789    0.65866    0.47154   1.00
C6       0.81784    0.65508    0.53073   1.00
C6       0.83641    0.64730    0.46995   1.00
C6       0.84910    0.64503    0.50759   1.00
H3       0.77914    0.66331    0.44700   1.00
H3       0.81793    0.65636    0.56197   1.00
H3       0.85337    0.64136    0.44425   1.00
H3       0.87792    0.63691    0.51713   1.00
C4       0.25012    0.25015    0.97915   1.00
C4       0.24988    0.24985    1.02085   1.00
C3a      0.24942    0.28573    0.95746   1.00
C3       0.28430    0.25682    1.04232   1.00
C3       0.25120    0.21505    0.95768   1.00
C3a      0.21508    0.24241    1.04254   1.00
C2       0.25007    0.24995    0.89488   1.00
C2       0.25006    0.24995    1.10512   1.00
C3       0.24932    0.28505    0.91595   1.00
C3       0.28432    0.25697    1.08363   1.00
C3       0.25105    0.21499    0.91637   1.00
C3       0.21572    0.24265    1.08405   1.00
C5       0.24813    0.32494    0.97772   1.00
H1       0.31129    0.26257    1.02691   1.00
H1       0.24858    0.31216    0.89979   1.00
H1       0.31131    0.26267    1.09901   1.00
H1       0.25167    0.18742    0.90099   1.00
H1       0.18916    0.23718    1.10021   1.00
C5       0.17661    0.23470    1.02228   1.00
H1       0.25176    0.18746    0.97309   1.00
H2       0.15209    0.24080    1.04256   1.00
H2       0.17284    0.25501    0.99731   1.00
H2       0.23659    0.34743    0.95744   1.00
H2       0.22750    0.32397    1.00269   1.00
N1       0.17434    0.19432    1.00857   1.00
C6       0.17308    0.16227    1.03073   1.00
C6       0.17201    0.18251    0.97154   1.00
C6       0.17044    0.12954    1.00759   1.00
C6       0.16975    0.14241    0.96995   1.00
H3       0.17435    0.16248    1.06197   1.00
H3       0.17226    0.20183    0.94700   1.00
H3       0.16913    0.09963    1.01713   1.00
H3       0.16785    0.12455    0.94425   1.00
N1       0.28692    0.33638    0.99143   1.00
C6       0.29789    0.34134    1.02846   1.00
C6       0.31784    0.34492    0.96927   1.00
C6       0.33641    0.35270    1.03005   1.00
C6       0.34910    0.35497    0.99241   1.00
H3       0.27914    0.33669    1.05300   1.00
H3       0.31793    0.34364    0.93803   1.00
H3       0.35337    0.35864    1.05575   1.00
H3       0.37792    0.36309    0.98287   1.00
C4       0.25015    0.47915    0.75012   1.00
C4       0.24985    0.52085    0.74988   1.00
C3a      0.28573    0.45746    0.74942   1.00
C3       0.25682    0.54232    0.78430   1.00
C3       0.21505    0.45768    0.75120   1.00
C3a      0.24241    0.54254    0.71508   1.00
C2       0.24995    0.39488    0.75007   1.00
C2       0.24995    0.60512    0.75006   1.00
C3       0.28505    0.41595    0.74932   1.00
C3       0.25697    0.58363    0.78432   1.00
C3       0.21499    0.41637    0.75105   1.00
C3       0.24265    0.58405    0.71572   1.00
C5       0.32494    0.47772    0.74813   1.00
H1       0.26257    0.52691    0.81129   1.00
H1       0.31216    0.39979    0.74858   1.00
H1       0.26267    0.59901    0.81131   1.00
H1       0.18742    0.40099    0.75167   1.00
H1       0.23718    0.60021    0.68916   1.00
C5       0.23470    0.52228    0.67661   1.00
H1       0.18746    0.47309    0.75176   1.00
H2       0.24080    0.54256    0.65209   1.00
H2       0.25501    0.49731    0.67284   1.00
H2       0.34743    0.45744    0.73659   1.00
H2       0.32397    0.50269    0.72750   1.00
N1       0.19432    0.50857    0.67434   1.00
C6       0.16227    0.53073    0.67308   1.00
C6       0.18251    0.47154    0.67201   1.00
C6       0.12954    0.50759    0.67044   1.00
C6       0.14241    0.46995    0.66975   1.00
H3       0.16248    0.56197    0.67435   1.00
H3       0.20183    0.44700    0.67226   1.00
H3       0.09963    0.51713    0.66913   1.00
H3       0.12455    0.44425    0.66785   1.00
N1       0.33638    0.49143    0.78692   1.00
C6       0.34134    0.52846    0.79789   1.00
C6       0.34492    0.46927    0.81784   1.00
C6       0.35270    0.53005    0.83641   1.00
C6       0.35497    0.49241    0.84910   1.00
H3       0.33669    0.55300    0.77914   1.00
H3       0.34364    0.43803    0.81793   1.00
H3       0.35864    0.55575    0.85337   1.00
H3       0.36309    0.48287    0.87792   1.00
C4       0.02085    0.25012    0.74985   1.00
C4       -0.02085   0.24988    0.75015   1.00
C3a      0.04254    0.24942    0.71427   1.00
C3       -0.04232   0.28430    0.74318   1.00
C3       0.04232    0.25120    0.78495   1.00
C3a      -0.04254   0.21508    0.75759   1.00
C2       0.10512    0.25007    0.75005   1.00
C2       -0.10512   0.25006    0.75005   1.00
C3       0.08405    0.24932    0.71495   1.00
C3       -0.08363   0.28432    0.74303   1.00
C3       0.08363    0.25105    0.78501   1.00
C3       -0.08405   0.21572    0.75735   1.00
C5       0.02228    0.24813    0.67506   1.00
H1       -0.02691   0.31129    0.73743   1.00
H1       0.10021    0.24858    0.68784   1.00
H1       -0.09901   0.31131    0.73733   1.00
H1       0.09901    0.25167    0.81258   1.00
H1       -0.10021   0.18916    0.76282   1.00
C5       -0.02228   0.17661    0.76530   1.00
H1       0.02691    0.25176    0.81254   1.00
H2       -0.04256   0.15209    0.75920   1.00
H2       0.00269    0.17284    0.74499   1.00
H2       0.04256    0.23659    0.65257   1.00
H2       -0.00269   0.22750    0.67603   1.00
N1       -0.00857   0.17434    0.80568   1.00
C6       -0.03073   0.17308    0.83773   1.00
C6       0.02846    0.17201    0.81749   1.00
C6       -0.00759   0.17044    0.87046   1.00
C6       0.03005    0.16975    0.85759   1.00
H3       -0.06197   0.17435    0.83752   1.00
H3       0.05300    0.17226    0.79817   1.00
H3       -0.01713   0.16913    0.90037   1.00
H3       0.05575    0.16785    0.87545   1.00
N1       0.00857    0.28692    0.66362   1.00
C6       -0.02846   0.29789    0.65866   1.00
C6       0.03073    0.31784    0.65508   1.00
C6       -0.03005   0.33641    0.64730   1.00
C6       0.00759    0.34910    0.64503   1.00
H3       -0.05300   0.27914    0.66331   1.00
H3       0.06197    0.31793    0.65636   1.00
H3       -0.05575   0.35337    0.64136   1.00
H3       0.01713    0.37792    0.63691   1.00
C4       0.47915    0.25012    0.75015   1.00
C4       0.52085    0.24988    0.74985   1.00
C3a      0.45746    0.24942    0.78573   1.00
C3       0.54232    0.28430    0.75682   1.00
C3       0.45768    0.25120    0.71505   1.00
C3a      0.54254    0.21508    0.74241   1.00
C2       0.39488    0.25007    0.74995   1.00
C2       0.60512    0.25006    0.74995   1.00
C3       0.41595    0.24932    0.78505   1.00
C3       0.58363    0.28432    0.75697   1.00
C3       0.41637    0.25105    0.71499   1.00
C3       0.58405    0.21572    0.74265   1.00
C5       0.47772    0.24813    0.82494   1.00
H1       0.52691    0.31129    0.76257   1.00
H1       0.39979    0.24858    0.81216   1.00
H1       0.59901    0.31131    0.76267   1.00
H1       0.40099    0.25167    0.68742   1.00
H1       0.60021    0.18916    0.73718   1.00
C5       0.52228    0.17661    0.73470   1.00
H1       0.47309    0.25176    0.68746   1.00
H2       0.54256    0.15209    0.74080   1.00
H2       0.49731    0.17284    0.75501   1.00
H2       0.45744    0.23659    0.84743   1.00
H2       0.50269    0.22750    0.82397   1.00
N1       0.50857    0.17434    0.69432   1.00
C6       0.53073    0.17308    0.66227   1.00
C6       0.47154    0.17201    0.68251   1.00
C6       0.50759    0.17044    0.62954   1.00
C6       0.46995    0.16975    0.64241   1.00
H3       0.56197    0.17435    0.66248   1.00
H3       0.44700    0.17226    0.70183   1.00
H3       0.51713    0.16913    0.59963   1.00
H3       0.44425    0.16785    0.62455   1.00
N1       0.49143    0.28692    0.83638   1.00
C6       0.52846    0.29789    0.84134   1.00
C6       0.46927    0.31784    0.84492   1.00
C6       0.53005    0.33641    0.85270   1.00
C6       0.49241    0.34910    0.85497   1.00
H3       0.55300    0.27914    0.83669   1.00
H3       0.43803    0.31793    0.84364   1.00
H3       0.55575    0.35337    0.85864   1.00
H3       0.48287    0.37792    0.86309   1.00
C4       0.24985    0.02085    0.75012   1.00
C4       0.25015    -0.02085   0.74988   1.00
C3a      0.21427    0.04254    0.74942   1.00
C3       0.24318    -0.04232   0.78430   1.00
C3       0.28495    0.04232    0.75120   1.00
C3a      0.25759    -0.04254   0.71508   1.00
C2       0.25005    0.10512    0.75007   1.00
C2       0.25005    -0.10512   0.75006   1.00
C3       0.21495    0.08405    0.74932   1.00
C3       0.24303    -0.08363   0.78432   1.00
C3       0.28501    0.08363    0.75105   1.00
C3       0.25735    -0.08405   0.71572   1.00
C5       0.17506    0.02228    0.74813   1.00
H1       0.23743    -0.02691   0.81129   1.00
H1       0.18784    0.10021    0.74858   1.00
H1       0.23733    -0.09901   0.81131   1.00
H1       0.31258    0.09901    0.75167   1.00
H1       0.26282    -0.10021   0.68916   1.00
C5       0.26530    -0.02228   0.67661   1.00
H1       0.31254    0.02691    0.75176   1.00
H2       0.25920    -0.04256   0.65209   1.00
H2       0.24499    0.00269    0.67284   1.00
H2       0.15257    0.04256    0.73659   1.00
H2       0.17603    -0.00269   0.72750   1.00
N1       0.30568    -0.00857   0.67434   1.00
C6       0.33773    -0.03073   0.67308   1.00
C6       0.31749    0.02846    0.67201   1.00
C6       0.37046    -0.00759   0.67044   1.00
C6       0.35759    0.03005    0.66975   1.00
H3       0.33752    -0.06197   0.67435   1.00
H3       0.29817    0.05300    0.67226   1.00
H3       0.40037    -0.01713   0.66913   1.00
H3       0.37545    0.05575    0.66785   1.00
N1       0.16362    0.00857    0.78692   1.00
C6       0.15866    -0.02846   0.79789   1.00
C6       0.15508    0.03073    0.81784   1.00
C6       0.14730    -0.03005   0.83641   1.00
C6       0.14503    0.00759    0.84910   1.00
H3       0.16331    -0.05300   0.77914   1.00
H3       0.15636    0.06197    0.81793   1.00
H3       0.14136    -0.05575   0.85337   1.00
H3       0.13691    0.01713    0.87792   1.00
C4       0.25012    0.24985    0.52085   1.00
C4       0.24988    0.25015    0.47915   1.00
C3a      0.24942    0.21427    0.54254   1.00
C3       0.28430    0.24318    0.45768   1.00
C3       0.25120    0.28495    0.54232   1.00
C3a      0.21508    0.25759    0.45746   1.00
C2       0.25007    0.25005    0.60512   1.00
C2       0.25006    0.25005    0.39488   1.00
C3       0.24932    0.21495    0.58405   1.00
C3       0.28432    0.24303    0.41637   1.00
C3       0.25105    0.28501    0.58363   1.00
C3       0.21572    0.25735    0.41595   1.00
C5       0.24813    0.17506    0.52228   1.00
H1       0.31129    0.23743    0.47309   1.00
H1       0.24858    0.18784    0.60021   1.00
H1       0.31131    0.23733    0.40099   1.00
H1       0.25167    0.31258    0.59901   1.00
H1       0.18916    0.26282    0.39979   1.00
C5       0.17661    0.26530    0.47772   1.00
H1       0.25176    0.31254    0.52691   1.00
H2       0.15209    0.25920    0.45744   1.00
H2       0.17284    0.24499    0.50269   1.00
H2       0.23659    0.15257    0.54256   1.00
H2       0.22750    0.17603    0.49731   1.00
N1       0.17434    0.30568    0.49143   1.00
C6       0.17308    0.33773    0.46927   1.00
C6       0.17201    0.31749    0.52846   1.00
C6       0.17044    0.37046    0.49241   1.00
C6       0.16975    0.35759    0.53005   1.00
H3       0.17435    0.33752    0.43803   1.00
H3       0.17226    0.29817    0.55300   1.00
H3       0.16913    0.40037    0.48287   1.00
H3       0.16785    0.37545    0.55575   1.00
N1       0.28692    0.16362    0.50857   1.00
C6       0.29789    0.15866    0.47154   1.00
C6       0.31784    0.15508    0.53073   1.00
C6       0.33641    0.14730    0.46995   1.00
C6       0.34910    0.14503    0.50759   1.00
H3       0.27914    0.16331    0.44700   1.00
H3       0.31793    0.15636    0.56197   1.00
H3       0.35337    0.14136    0.44425   1.00
H3       0.37792    0.13691    0.51713   1.00
C4       0.25012    0.75015    0.47915   1.00
C4       0.24988    0.74985    0.52085   1.00
C3a      0.24942    0.78573    0.45746   1.00
C3       0.28430    0.75682    0.54232   1.00
C3       0.25120    0.71505    0.45768   1.00
C3a      0.21508    0.74241    0.54254   1.00
C2       0.25007    0.74995    0.39488   1.00
C2       0.25006    0.74995    0.60512   1.00
C3       0.24932    0.78505    0.41595   1.00
C3       0.28432    0.75697    0.58363   1.00
C3       0.25105    0.71499    0.41637   1.00
C3       0.21572    0.74265    0.58405   1.00
C5       0.24813    0.82494    0.47772   1.00
H1       0.31129    0.76257    0.52691   1.00
H1       0.24858    0.81216    0.39979   1.00
H1       0.31131    0.76267    0.59901   1.00
H1       0.25167    0.68742    0.40099   1.00
H1       0.18916    0.73718    0.60021   1.00
C5       0.17661    0.73470    0.52228   1.00
H1       0.25176    0.68746    0.47309   1.00
H2       0.15209    0.74080    0.54256   1.00
H2       0.17284    0.75501    0.49731   1.00
H2       0.23659    0.84743    0.45744   1.00
H2       0.22750    0.82397    0.50269   1.00
N1       0.17434    0.69432    0.50857   1.00
C6       0.17308    0.66227    0.53073   1.00
C6       0.17201    0.68251    0.47154   1.00
C6       0.17044    0.62954    0.50759   1.00
C6       0.16975    0.64241    0.46995   1.00
H3       0.17435    0.66248    0.56197   1.00
H3       0.17226    0.70183    0.44700   1.00
H3       0.16913    0.59963    0.51713   1.00
H3       0.16785    0.62455    0.44425   1.00
N1       0.28692    0.83638    0.49143   1.00
C6       0.29789    0.84134    0.52846   1.00
C6       0.31784    0.84492    0.46927   1.00
C6       0.33641    0.85270    0.53005   1.00
C6       0.34910    0.85497    0.49241   1.00
H3       0.27914    0.83669    0.55300   1.00
H3       0.31793    0.84364    0.43803   1.00
H3       0.35337    0.85864    0.55575   1.00
H3       0.37792    0.86309    0.48287   1.00
C4       0.25015    0.97915    0.25012   1.00
C4       0.24985    1.02085    0.24988   1.00
C3a      0.28573    0.95746    0.24942   1.00
C3       0.25682    1.04232    0.28430   1.00
C3       0.21505    0.95768    0.25120   1.00
C3a      0.24241    1.04254    0.21508   1.00
C2       0.24995    0.89488    0.25007   1.00
C2       0.24995    1.10512    0.25006   1.00
C3       0.28505    0.91595    0.24932   1.00
C3       0.25697    1.08363    0.28432   1.00
C3       0.21499    0.91637    0.25105   1.00
C3       0.24265    1.08405    0.21572   1.00
C5       0.32494    0.97772    0.24813   1.00
H1       0.26257    1.02691    0.31129   1.00
H1       0.31216    0.89979    0.24858   1.00
H1       0.26267    1.09901    0.31131   1.00
H1       0.18742    0.90099    0.25167   1.00
H1       0.23718    1.10021    0.18916   1.00
C5       0.23470    1.02228    0.17661   1.00
H1       0.18746    0.97309    0.25176   1.00
H2       0.24080    1.04256    0.15209   1.00
H2       0.25501    0.99731    0.17284   1.00
H2       0.34743    0.95744    0.23659   1.00
H2       0.32397    1.00269    0.22750   1.00
N1       0.19432    1.00857    0.17434   1.00
C6       0.16227    1.03073    0.17308   1.00
C6       0.18251    0.97154    0.17201   1.00
C6       0.12954    1.00759    0.17044   1.00
C6       0.14241    0.96995    0.16975   1.00
H3       0.16248    1.06197    0.17435   1.00
H3       0.20183    0.94700    0.17226   1.00
H3       0.09963    1.01713    0.16913   1.00
H3       0.12455    0.94425    0.16785   1.00
N1       0.33638    0.99143    0.28692   1.00
C6       0.34134    1.02846    0.29789   1.00
C6       0.34492    0.96927    0.31784   1.00
C6       0.35270    1.03005    0.33641   1.00
C6       0.35497    0.99241    0.34910   1.00
H3       0.33669    1.05300    0.27914   1.00
H3       0.34364    0.93803    0.31793   1.00
H3       0.35864    1.05575    0.35337   1.00
H3       0.36309    0.98287    0.37792   1.00
C4       0.02085    0.75012    0.24985   1.00
C4       -0.02085   0.74988    0.25015   1.00
C3a      0.04254    0.74942    0.21427   1.00
C3       -0.04232   0.78430    0.24318   1.00
C3       0.04232    0.75120    0.28495   1.00
C3a      -0.04254   0.71508    0.25759   1.00
C2       0.10512    0.75007    0.25005   1.00
C2       -0.10512   0.75006    0.25005   1.00
C3       0.08405    0.74932    0.21495   1.00
C3       -0.08363   0.78432    0.24303   1.00
C3       0.08363    0.75105    0.28501   1.00
C3       -0.08405   0.71572    0.25735   1.00
C5       0.02228    0.74813    0.17506   1.00
H1       -0.02691   0.81129    0.23743   1.00
H1       0.10021    0.74858    0.18784   1.00
H1       -0.09901   0.81131    0.23733   1.00
H1       0.09901    0.75167    0.31258   1.00
H1       -0.10021   0.68916    0.26282   1.00
C5       -0.02228   0.67661    0.26530   1.00
H1       0.02691    0.75176    0.31254   1.00
H2       -0.04256   0.65209    0.25920   1.00
H2       0.00269    0.67284    0.24499   1.00
H2       0.04256    0.73659    0.15257   1.00
H2       -0.00269   0.72750    0.17603   1.00
N1       -0.00857   0.67434    0.30568   1.00
C6       -0.03073   0.67308    0.33773   1.00
C6       0.02846    0.67201    0.31749   1.00
C6       -0.00759   0.67044    0.37046   1.00
C6       0.03005    0.66975    0.35759   1.00
H3       -0.06197   0.67435    0.33752   1.00
H3       0.05300    0.67226    0.29817   1.00
H3       -0.01713   0.66913    0.40037   1.00
H3       0.05575    0.66785    0.37545   1.00
N1       0.00857    0.78692    0.16362   1.00
C6       -0.02846   0.79789    0.15866   1.00
C6       0.03073    0.81784    0.15508   1.00
C6       -0.03005   0.83641    0.14730   1.00
C6       0.00759    0.84910    0.14503   1.00
H3       -0.05300   0.77914    0.16331   1.00
H3       0.06197    0.81793    0.15636   1.00
H3       -0.05575   0.85337    0.14136   1.00
H3       0.01713    0.87792    0.13691   1.00
C4       0.47915    0.75012    0.25015   1.00
C4       0.52085    0.74988    0.24985   1.00
C3a      0.45746    0.74942    0.28573   1.00
C3       0.54232    0.78430    0.25682   1.00
C3       0.45768    0.75120    0.21505   1.00
C3a      0.54254    0.71508    0.24241   1.00
C2       0.39488    0.75007    0.24995   1.00
C2       0.60512    0.75006    0.24995   1.00
C3       0.41595    0.74932    0.28505   1.00
C3       0.58363    0.78432    0.25697   1.00
C3       0.41637    0.75105    0.21499   1.00
C3       0.58405    0.71572    0.24265   1.00
C5       0.47772    0.74813    0.32494   1.00
H1       0.52691    0.81129    0.26257   1.00
H1       0.39979    0.74858    0.31216   1.00
H1       0.59901    0.81131    0.26267   1.00
H1       0.40099    0.75167    0.18742   1.00
H1       0.60021    0.68916    0.23718   1.00
C5       0.52228    0.67661    0.23470   1.00
H1       0.47309    0.75176    0.18746   1.00
H2       0.54256    0.65209    0.24080   1.00
H2       0.49731    0.67284    0.25501   1.00
H2       0.45744    0.73659    0.34743   1.00
H2       0.50269    0.72750    0.32397   1.00
N1       0.50857    0.67434    0.19432   1.00
C6       0.53073    0.67308    0.16227   1.00
C6       0.47154    0.67201    0.18251   1.00
C6       0.50759    0.67044    0.12954   1.00
C6       0.46995    0.66975    0.14241   1.00
H3       0.56197    0.67435    0.16248   1.00
H3       0.44700    0.67226    0.20183   1.00
H3       0.51713    0.66913    0.09963   1.00
H3       0.44425    0.66785    0.12455   1.00
N1       0.49143    0.78692    0.33638   1.00
C6       0.52846    0.79789    0.34134   1.00
C6       0.46927    0.81784    0.34492   1.00
C6       0.53005    0.83641    0.35270   1.00
C6       0.49241    0.84910    0.35497   1.00
H3       0.55300    0.77914    0.33669   1.00
H3       0.43803    0.81793    0.34364   1.00
H3       0.55575    0.85337    0.35864   1.00
H3       0.48287    0.87792    0.36309   1.00
C4       0.24985    0.52085    0.25012   1.00
C4       0.25015    0.47915    0.24988   1.00
C3a      0.21427    0.54254    0.24942   1.00
C3       0.24318    0.45768    0.28430   1.00
C3       0.28495    0.54232    0.25120   1.00
C3a      0.25759    0.45746    0.21508   1.00
C2       0.25005    0.60512    0.25007   1.00
C2       0.25005    0.39488    0.25006   1.00
C3       0.21495    0.58405    0.24932   1.00
C3       0.24303    0.41637    0.28432   1.00
C3       0.28501    0.58363    0.25105   1.00
C3       0.25735    0.41595    0.21572   1.00
C5       0.17506    0.52228    0.24813   1.00
H1       0.23743    0.47309    0.31129   1.00
H1       0.18784    0.60021    0.24858   1.00
H1       0.23733    0.40099    0.31131   1.00
H1       0.31258    0.59901    0.25167   1.00
H1       0.26282    0.39979    0.18916   1.00
C5       0.26530    0.47772    0.17661   1.00
H1       0.31254    0.52691    0.25176   1.00
H2       0.25920    0.45744    0.15209   1.00
H2       0.24499    0.50269    0.17284   1.00
H2       0.15257    0.54256    0.23659   1.00
H2       0.17603    0.49731    0.22750   1.00
N1       0.30568    0.49143    0.17434   1.00
C6       0.33773    0.46927    0.17308   1.00
C6       0.31749    0.52846    0.17201   1.00
C6       0.37046    0.49241    0.17044   1.00
C6       0.35759    0.53005    0.16975   1.00
H3       0.33752    0.43803    0.17435   1.00
H3       0.29817    0.55300    0.17226   1.00
H3       0.40037    0.48287    0.16913   1.00
H3       0.37545    0.55575    0.16785   1.00
N1       0.16362    0.50857    0.28692   1.00
C6       0.15866    0.47154    0.29789   1.00
C6       0.15508    0.53073    0.31784   1.00
C6       0.14730    0.46995    0.33641   1.00
C6       0.14503    0.50759    0.34910   1.00
H3       0.16331    0.44700    0.27914   1.00
H3       0.15636    0.56197    0.31793   1.00
H3       0.14136    0.44425    0.35337   1.00
H3       0.13691    0.51713    0.37792   1.00
C4       0.25012    0.74985    0.02085   1.00
C4       0.24988    0.75015    -0.02085   1.00
C3a      0.24942    0.71427    0.04254   1.00
C3       0.28430    0.74318    -0.04232   1.00
C3       0.25120    0.78495    0.04232   1.00
C3a      0.21508    0.75759    -0.04254   1.00
C2       0.25007    0.75005    0.10512   1.00
C2       0.25006    0.75005    -0.10512   1.00
C3       0.24932    0.71495    0.08405   1.00
C3       0.28432    0.74303    -0.08363   1.00
C3       0.25105    0.78501    0.08363   1.00
C3       0.21572    0.75735    -0.08405   1.00
C5       0.24813    0.67506    0.02228   1.00
H1       0.31129    0.73743    -0.02691   1.00
H1       0.24858    0.68784    0.10021   1.00
H1       0.31131    0.73733    -0.09901   1.00
H1       0.25167    0.81258    0.09901   1.00
H1       0.18916    0.76282    -0.10021   1.00
C5       0.17661    0.76530    -0.02228   1.00
H1       0.25176    0.81254    0.02691   1.00
H2       0.15209    0.75920    -0.04256   1.00
H2       0.17284    0.74499    0.00269   1.00
H2       0.23659    0.65257    0.04256   1.00
H2       0.22750    0.67603    -0.00269   1.00
N1       0.17434    0.80568    -0.00857   1.00
C6       0.17308    0.83773    -0.03073   1.00
C6       0.17201    0.81749    0.02846   1.00
C6       0.17044    0.87046    -0.00759   1.00
C6       0.16975    0.85759    0.03005   1.00
H3       0.17435    0.83752    -0.06197   1.00
H3       0.17226    0.79817    0.05300   1.00
H3       0.16913    0.90037    -0.01713   1.00
H3       0.16785    0.87545    0.05575   1.00
N1       0.28692    0.66362    0.00857   1.00
C6       0.29789    0.65866    -0.02846   1.00
C6       0.31784    0.65508    0.03073   1.00
C6       0.33641    0.64730    -0.03005   1.00
C6       0.34910    0.64503    0.00759   1.00
H3       0.27914    0.66331    -0.05300   1.00
H3       0.31793    0.65636    0.06197   1.00
H3       0.35337    0.64136    -0.05575   1.00
H3       0.37792    0.63691    0.01713   1.00
C4       0.75012    0.25015    0.47915   1.00
C4       0.74988    0.24985    0.52085   1.00
C3a      0.74942    0.28573    0.45746   1.00
C3       0.78430    0.25682    0.54232   1.00
C3       0.75120    0.21505    0.45768   1.00
C3a      0.71508    0.24241    0.54254   1.00
C2       0.75007    0.24995    0.39488   1.00
C2       0.75006    0.24995    0.60512   1.00
C3       0.74932    0.28505    0.41595   1.00
C3       0.78432    0.25697    0.58363   1.00
C3       0.75105    0.21499    0.41637   1.00
C3       0.71572    0.24265    0.58405   1.00
C5       0.74813    0.32494    0.47772   1.00
H1       0.81129    0.26257    0.52691   1.00
H1       0.74858    0.31216    0.39979   1.00
H1       0.81131    0.26267    0.59901   1.00
H1       0.75167    0.18742    0.40099   1.00
H1       0.68916    0.23718    0.60021   1.00
C5       0.67661    0.23470    0.52228   1.00
H1       0.75176    0.18746    0.47309   1.00
H2       0.65209    0.24080    0.54256   1.00
H2       0.67284    0.25501    0.49731   1.00
H2       0.73659    0.34743    0.45744   1.00
H2       0.72750    0.32397    0.50269   1.00
N1       0.67434    0.19432    0.50857   1.00
C6       0.67308    0.16227    0.53073   1.00
C6       0.67201    0.18251    0.47154   1.00
C6       0.67044    0.12954    0.50759   1.00
C6       0.66975    0.14241    0.46995   1.00
H3       0.67435    0.16248    0.56197   1.00
H3       0.67226    0.20183    0.44700   1.00
H3       0.66913    0.09963    0.51713   1.00
H3       0.66785    0.12455    0.44425   1.00
N1       0.78692    0.33638    0.49143   1.00
C6       0.79789    0.34134    0.52846   1.00
C6       0.81784    0.34492    0.46927   1.00
C6       0.83641    0.35270    0.53005   1.00
C6       0.84910    0.35497    0.49241   1.00
H3       0.77914    0.33669    0.55300   1.00
H3       0.81793    0.34364    0.43803   1.00
H3       0.85337    0.35864    0.55575   1.00
H3       0.87792    0.36309    0.48287   1.00
C4       0.75015    0.47915    0.25012   1.00
C4       0.74985    0.52085    0.24988   1.00
C3a      0.78573    0.45746    0.24942   1.00
C3       0.75682    0.54232    0.28430   1.00
C3       0.71505    0.45768    0.25120   1.00
C3a      0.74241    0.54254    0.21508   1.00
C2       0.74995    0.39488    0.25007   1.00
C2       0.74995    0.60512    0.25006   1.00
C3       0.78505    0.41595    0.24932   1.00
C3       0.75697    0.58363    0.28432   1.00
C3       0.71499    0.41637    0.25105   1.00
C3       0.74265    0.58405    0.21572   1.00
C5       0.82494    0.47772    0.24813   1.00
H1       0.76257    0.52691    0.31129   1.00
H1       0.81216    0.39979    0.24858   1.00
H1       0.76267    0.59901    0.31131   1.00
H1       0.68742    0.40099    0.25167   1.00
H1       0.73718    0.60021    0.18916   1.00
C5       0.73470    0.52228    0.17661   1.00
H1       0.68746    0.47309    0.25176   1.00
H2       0.74080    0.54256    0.15209   1.00
H2       0.75501    0.49731    0.17284   1.00
H2       0.84743    0.45744    0.23659   1.00
H2       0.82397    0.50269    0.22750   1.00
N1       0.69432    0.50857    0.17434   1.00
C6       0.66227    0.53073    0.17308   1.00
C6       0.68251    0.47154    0.17201   1.00
C6       0.62954    0.50759    0.17044   1.00
C6       0.64241    0.46995    0.16975   1.00
H3       0.66248    0.56197    0.17435   1.00
H3       0.70183    0.44700    0.17226   1.00
H3       0.59963    0.51713    0.16913   1.00
H3       0.62455    0.44425    0.16785   1.00
N1       0.83638    0.49143    0.28692   1.00
C6       0.84134    0.52846    0.29789   1.00
C6       0.84492    0.46927    0.31784   1.00
C6       0.85270    0.53005    0.33641   1.00
C6       0.85497    0.49241    0.34910   1.00
H3       0.83669    0.55300    0.27914   1.00
H3       0.84364    0.43803    0.31793   1.00
H3       0.85864    0.55575    0.35337   1.00
H3       0.86309    0.48287    0.37792   1.00
C4       0.52085    0.25012    0.24985   1.00
C4       0.47915    0.24988    0.25015   1.00
C3a      0.54254    0.24942    0.21427   1.00
C3       0.45768    0.28430    0.24318   1.00
C3       0.54232    0.25120    0.28495   1.00
C3a      0.45746    0.21508    0.25759   1.00
C2       0.60512    0.25007    0.25005   1.00
C2       0.39488    0.25006    0.25005   1.00
C3       0.58405    0.24932    0.21495   1.00
C3       0.41637    0.28432    0.24303   1.00
C3       0.58363    0.25105    0.28501   1.00
C3       0.41595    0.21572    0.25735   1.00
C5       0.52228    0.24813    0.17506   1.00
H1       0.47309    0.31129    0.23743   1.00
H1       0.60021    0.24858    0.18784   1.00
H1       0.40099    0.31131    0.23733   1.00
H1       0.59901    0.25167    0.31258   1.00
H1       0.39979    0.18916    0.26282   1.00
C5       0.47772    0.17661    0.26530   1.00
H1       0.52691    0.25176    0.31254   1.00
H2       0.45744    0.15209    0.25920   1.00
H2       0.50269    0.17284    0.24499   1.00
H2       0.54256    0.23659    0.15257   1.00
H2       0.49731    0.22750    0.17603   1.00
N1       0.49143    0.17434    0.30568   1.00
C6       0.46927    0.17308    0.33773   1.00
C6       0.52846    0.17201    0.31749   1.00
C6       0.49241    0.17044    0.37046   1.00
C6       0.53005    0.16975    0.35759   1.00
H3       0.43803    0.17435    0.33752   1.00
H3       0.55300    0.17226    0.29817   1.00
H3       0.48287    0.16913    0.40037   1.00
H3       0.55575    0.16785    0.37545   1.00
N1       0.50857    0.28692    0.16362   1.00
C6       0.47154    0.29789    0.15866   1.00
C6       0.53073    0.31784    0.15508   1.00
C6       0.46995    0.33641    0.14730   1.00
C6       0.50759    0.34910    0.14503   1.00
H3       0.44700    0.27914    0.16331   1.00
H3       0.56197    0.31793    0.15636   1.00
H3       0.44425    0.35337    0.14136   1.00
H3       0.51713    0.37792    0.13691   1.00
C4       0.97915    0.25012    0.25015   1.00
C4       1.02085    0.24988    0.24985   1.00
C3a      0.95746    0.24942    0.28573   1.00
C3       1.04232    0.28430    0.25682   1.00
C3       0.95768    0.25120    0.21505   1.00
C3a      1.04254    0.21508    0.24241   1.00
C2       0.89488    0.25007    0.24995   1.00
C2       1.10512    0.25006    0.24995   1.00
C3       0.91595    0.24932    0.28505   1.00
C3       1.08363    0.28432    0.25697   1.00
C3       0.91637    0.25105    0.21499   1.00
C3       1.08405    0.21572    0.24265   1.00
C5       0.97772    0.24813    0.32494   1.00
H1       1.02691    0.31129    0.26257   1.00
H1       0.89979    0.24858    0.31216   1.00
H1       1.09901    0.31131    0.26267   1.00
H1       0.90099    0.25167    0.18742   1.00
H1       1.10021    0.18916    0.23718   1.00
C5       1.02228    0.17661    0.23470   1.00
H1       0.97309    0.25176    0.18746   1.00
H2       1.04256    0.15209    0.24080   1.00
H2       0.99731    0.17284    0.25501   1.00
H2       0.95744    0.23659    0.34743   1.00
H2       1.00269    0.22750    0.32397   1.00
N1       1.00857    0.17434    0.19432   1.00
C6       1.03073    0.17308    0.16227   1.00
C6       0.97154    0.17201    0.18251   1.00
C6       1.00759    0.17044    0.12954   1.00
C6       0.96995    0.16975    0.14241   1.00
H3       1.06197    0.17435    0.16248   1.00
H3       0.94700    0.17226    0.20183   1.00
H3       1.01713    0.16913    0.09963   1.00
H3       0.94425    0.16785    0.12455   1.00
N1       0.99143    0.28692    0.33638   1.00
C6       1.02846    0.29789    0.34134   1.00
C6       0.96927    0.31784    0.34492   1.00
C6       1.03005    0.33641    0.35270   1.00
C6       0.99241    0.34910    0.35497   1.00
H3       1.05300    0.27914    0.33669   1.00
H3       0.93803    0.31793    0.34364   1.00
H3       1.05575    0.35337    0.35864   1.00
H3       0.98287    0.37792    0.36309   1.00
C4       0.74985    0.02085    0.25012   1.00
C4       0.75015    -0.02085   0.24988   1.00
C3a      0.71427    0.04254    0.24942   1.00
C3       0.74318    -0.04232   0.28430   1.00
C3       0.78495    0.04232    0.25120   1.00
C3a      0.75759    -0.04254   0.21508   1.00
C2       0.75005    0.10512    0.25007   1.00
C2       0.75005    -0.10512   0.25006   1.00
C3       0.71495    0.08405    0.24932   1.00
C3       0.74303    -0.08363   0.28432   1.00
C3       0.78501    0.08363    0.25105   1.00
C3       0.75735    -0.08405   0.21572   1.00
C5       0.67506    0.02228    0.24813   1.00
H1       0.73743    -0.02691   0.31129   1.00
H1       0.68784    0.10021    0.24858   1.00
H1       0.73733    -0.09901   0.31131   1.00
H1       0.81258    0.09901    0.25167   1.00
H1       0.76282    -0.10021   0.18916   1.00
C5       0.76530    -0.02228   0.17661   1.00
H1       0.81254    0.02691    0.25176   1.00
H2       0.75920    -0.04256   0.15209   1.00
H2       0.74499    0.00269    0.17284   1.00
H2       0.65257    0.04256    0.23659   1.00
H2       0.67603    -0.00269   0.22750   1.00
N1       0.80568    -0.00857   0.17434   1.00
C6       0.83773    -0.03073   0.17308   1.00
C6       0.81749    0.02846    0.17201   1.00
C6       0.87046    -0.00759   0.17044   1.00
C6       0.85759    0.03005    0.16975   1.00
H3       0.83752    -0.06197   0.17435   1.00
H3       0.79817    0.05300    0.17226   1.00
H3       0.90037    -0.01713   0.16913   1.00
H3       0.87545    0.05575    0.16785   1.00
N1       0.66362    0.00857    0.28692   1.00
C6       0.65866    -0.02846   0.29789   1.00
C6       0.65508    0.03073    0.31784   1.00
C6       0.64730    -0.03005   0.33641   1.00
C6       0.64503    0.00759    0.34910   1.00
H3       0.66331    -0.05300   0.27914   1.00
H3       0.65636    0.06197    0.31793   1.00
H3       0.64136    -0.05575   0.35337   1.00
H3       0.63691    0.01713    0.37792   1.00
C4       0.75012    0.24985    0.02085   1.00
C4       0.74988    0.25015    -0.02085   1.00
C3a      0.74942    0.21427    0.04254   1.00
C3       0.78430    0.24318    -0.04232   1.00
C3       0.75120    0.28495    0.04232   1.00
C3a      0.71508    0.25759    -0.04254   1.00
C2       0.75007    0.25005    0.10512   1.00
C2       0.75006    0.25005    -0.10512   1.00
C3       0.74932    0.21495    0.08405   1.00
C3       0.78432    0.24303    -0.08363   1.00
C3       0.75105    0.28501    0.08363   1.00
C3       0.71572    0.25735    -0.08405   1.00
C5       0.74813    0.17506    0.02228   1.00
H1       0.81129    0.23743    -0.02691   1.00
H1       0.74858    0.18784    0.10021   1.00
H1       0.81131    0.23733    -0.09901   1.00
H1       0.75167    0.31258    0.09901   1.00
H1       0.68916    0.26282    -0.10021   1.00
C5       0.67661    0.26530    -0.02228   1.00
H1       0.75176    0.31254    0.02691   1.00
H2       0.65209    0.25920    -0.04256   1.00
H2       0.67284    0.24499    0.00269   1.00
H2       0.73659    0.15257    0.04256   1.00
H2       0.72750    0.17603    -0.00269   1.00
N1       0.67434    0.30568    -0.00857   1.00
C6       0.67308    0.33773    -0.03073   1.00
C6       0.67201    0.31749    0.02846   1.00
C6       0.67044    0.37046    -0.00759   1.00
C6       0.66975    0.35759    0.03005   1.00
H3       0.67435    0.33752    -0.06197   1.00
H3       0.67226    0.29817    0.05300   1.00
H3       0.66913    0.40037    -0.01713   1.00
H3       0.66785    0.37545    0.05575   1.00
N1       0.78692    0.16362    0.00857   1.00
C6       0.79789    0.15866    -0.02846   1.00
C6       0.81784    0.15508    0.03073   1.00
C6       0.83641    0.14730    -0.03005   1.00
C6       0.84910    0.14503    0.00759   1.00
H3       0.77914    0.16331    -0.05300   1.00
H3       0.81793    0.15636    0.06197   1.00
H3       0.85337    0.14136    -0.05575   1.00
H3       0.87792    0.13691    0.01713   1.00
C4       1.00012    1.00015    1.22915   1.00
C4       0.99988    0.99985    1.27085   1.00
C3a      0.99942    1.03573    1.20746   1.00
C3       1.03430    1.00682    1.29232   1.00
C3       1.00120    0.96505    1.20768   1.00
C3a      0.96508    0.99241    1.29254   1.00
C2       1.00007    0.99995    1.14488   1.00
C2       1.00006    0.99995    1.35512   1.00
C3       0.99932    1.03505    1.16595   1.00
C3       1.03432    1.00697    1.33363   1.00
C3       1.00105    0.96499    1.16637   1.00
C3       0.96572    0.99265    1.33405   1.00
C5       0.99813    1.07494    1.22772   1.00
H1       1.06129    1.01257    1.27691   1.00
H1       0.99858    1.06216    1.14979   1.00
H1       1.06131    1.01267    1.34901   1.00
H1       1.00167    0.93742    1.15099   1.00
H1       0.93916    0.98718    1.35021   1.00
C5       0.92661    0.98470    1.27228   1.00
H1       1.00176    0.93746    1.22309   1.00
H2       0.90209    0.99080    1.29256   1.00
H2       0.92284    1.00501    1.24731   1.00
H2       0.98659    1.09743    1.20744   1.00
H2       0.97750    1.07397    1.25269   1.00
N1       0.92434    0.94432    1.25857   1.00
C6       0.92308    0.91227    1.28073   1.00
C6       0.92201    0.93251    1.22154   1.00
C6       0.92044    0.87954    1.25759   1.00
C6       0.91975    0.89241    1.21995   1.00
H3       0.92435    0.91248    1.31197   1.00
H3       0.92226    0.95183    1.19700   1.00
H3       0.91913    0.84963    1.26713   1.00
H3       0.91785    0.87455    1.19425   1.00
N1       1.03692    1.08638    1.24143   1.00
C6       1.04789    1.09134    1.27846   1.00
C6       1.06784    1.09492    1.21927   1.00
C6       1.08641    1.10270    1.28005   1.00
C6       1.09910    1.10497    1.24241   1.00
H3       1.02914    1.08669    1.30300   1.00
H3       1.06793    1.09364    1.18803   1.00
H3       1.10337    1.10864    1.30575   1.00
H3       1.12792    1.11309    1.23287   1.00
C4       1.00015    1.22915    1.00012   1.00
C4       0.99985    1.27085    0.99988   1.00
C3a      1.03573    1.20746    0.99942   1.00
C3       1.00682    1.29232    1.03430   1.00
C3       0.96505    1.20768    1.00120   1.00
C3a      0.99241    1.29254    0.96508   1.00
C2       0.99995    1.14488    1.00007   1.00
C2       0.99995    1.35512    1.00006   1.00
C3       1.03505    1.16595    0.99932   1.00
C3       1.00697    1.33363    1.03432   1.00
C3       0.96499    1.16637    1.00105   1.00
C3       0.99265    1.33405    0.96572   1.00
C5       1.07494    1.22772    0.99813   1.00
H1       1.01257    1.27691    1.06129   1.00
H1       1.06216    1.14979    0.99858   1.00
H1       1.01267    1.34901    1.06131   1.00
H1       0.93742    1.15099    1.00167   1.00
H1       0.98718    1.35021    0.93916   1.00
C5       0.98470    1.27228    0.92661   1.00
H1       0.93746    1.22309    1.00176   1.00
H2       0.99080    1.29256    0.90209   1.00
H2       1.00501    1.24731    0.92284   1.00
H2       1.09743    1.20744    0.98659   1.00
H2       1.07397    1.25269    0.97750   1.00
N1       0.94432    1.25857    0.92434   1.00
C6       0.91227    1.28073    0.92308   1.00
C6       0.93251    1.22154    0.92201   1.00
C6       0.87954    1.25759    0.92044   1.00
C6       0.89241    1.21995    0.91975   1.00
H3       0.91248    1.31197    0.92435   1.00
H3       0.95183    1.19700    0.92226   1.00
H3       0.84963    1.26713    0.91913   1.00
H3       0.87455    1.19425    0.91785   1.00
N1       1.08638    1.24143    1.03692   1.00
C6       1.09134    1.27846    1.04789   1.00
C6       1.09492    1.21927    1.06784   1.00
C6       1.10270    1.28005    1.08641   1.00
C6       1.10497    1.24241    1.09910   1.00
H3       1.08669    1.30300    1.02914   1.00
H3       1.09364    1.18803    1.06793   1.00
H3       1.10864    1.30575    1.10337   1.00
H3       1.11309    1.23287    1.12792   1.00
C4       0.77085    1.00012    0.99985   1.00
C4       0.72915    0.99988    1.00015   1.00
C3a      0.79254    0.99942    0.96427   1.00
C3       0.70768    1.03430    0.99318   1.00
C3       0.79232    1.00120    1.03495   1.00
C3a      0.70746    0.96508    1.00759   1.00
C2       0.85512    1.00007    1.00005   1.00
C2       0.64488    1.00006    1.00005   1.00
C3       0.83405    0.99932    0.96495   1.00
C3       0.66637    1.03432    0.99303   1.00
C3       0.83363    1.00105    1.03501   1.00
C3       0.66595    0.96572    1.00735   1.00
C5       0.77228    0.99813    0.92506   1.00
H1       0.72309    1.06129    0.98743   1.00
H1       0.85021    0.99858    0.93784   1.00
H1       0.65099    1.06131    0.98733   1.00
H1       0.84901    1.00167    1.06258   1.00
H1       0.64979    0.93916    1.01282   1.00
C5       0.72772    0.92661    1.01530   1.00
H1       0.77691    1.00176    1.06254   1.00
H2       0.70744    0.90209    1.00920   1.00
H2       0.75269    0.92284    0.99499   1.00
H2       0.79256    0.98659    0.90257   1.00
H2       0.74731    0.97750    0.92603   1.00
N1       0.74143    0.92434    1.05568   1.00
C6       0.71927    0.92308    1.08773   1.00
C6       0.77846    0.92201    1.06749   1.00
C6       0.74241    0.92044    1.12046   1.00
C6       0.78005    0.91975    1.10759   1.00
H3       0.68803    0.92435    1.08752   1.00
H3       0.80300    0.92226    1.04817   1.00
H3       0.73287    0.91913    1.15037   1.00
H3       0.80575    0.91785    1.12545   1.00
N1       0.75857    1.03692    0.91362   1.00
C6       0.72154    1.04789    0.90866   1.00
C6       0.78073    1.06784    0.90508   1.00
C6       0.71995    1.08641    0.89730   1.00
C6       0.75759    1.09910    0.89503   1.00
H3       0.69700    1.02914    0.91331   1.00
H3       0.81197    1.06793    0.90636   1.00
H3       0.69425    1.10337    0.89136   1.00
H3       0.76713    1.12792    0.88691   1.00
C4       1.22915    1.00012    1.00015   1.00
C4       1.27085    0.99988    0.99985   1.00
C3a      1.20746    0.99942    1.03573   1.00
C3       1.29232    1.03430    1.00682   1.00
C3       1.20768    1.00120    0.96505   1.00
C3a      1.29254    0.96508    0.99241   1.00
C2       1.14488    1.00007    0.99995   1.00
C2       1.35512    1.00006    0.99995   1.00
C3       1.16595    0.99932    1.03505   1.00
C3       1.33363    1.03432    1.00697   1.00
C3       1.16637    1.00105    0.96499   1.00
C3       1.33405    0.96572    0.99265   1.00
C5       1.22772    0.99813    1.07494   1.00
H1       1.27691    1.06129    1.01257   1.00
H1       1.14979    0.99858    1.06216   1.00
H1       1.34901    1.06131    1.01267   1.00
H1       1.15099    1.00167    0.93742   1.00
H1       1.35021    0.93916    0.98718   1.00
C5       1.27228    0.92661    0.98470   1.00
H1       1.22309    1.00176    0.93746   1.00
H2       1.29256    0.90209    0.99080   1.00
H2       1.24731    0.92284    1.00501   1.00
H2       1.20744    0.98659    1.09743   1.00
H2       1.25269    0.97750    1.07397   1.00
N1       1.25857    0.92434    0.94432   1.00
C6       1.28073    0.92308    0.91227   1.00
C6       1.22154    0.92201    0.93251   1.00
C6       1.25759    0.92044    0.87954   1.00
C6       1.21995    0.91975    0.89241   1.00
H3       1.31197    0.92435    0.91248   1.00
H3       1.19700    0.92226    0.95183   1.00
H3       1.26713    0.91913    0.84963   1.00
H3       1.19425    0.91785    0.87455   1.00
N1       1.24143    1.03692    1.08638   1.00
C6       1.27846    1.04789    1.09134   1.00
C6       1.21927    1.06784    1.09492   1.00
C6       1.28005    1.08641    1.10270   1.00
C6       1.24241    1.09910    1.10497   1.00
H3       1.30300    1.02914    1.08669   1.00
H3       1.18803    1.06793    1.09364   1.00
H3       1.30575    1.10337    1.10864   1.00
H3       1.23287    1.12792    1.11309   1.00
C4       0.99985    0.77085    1.00012   1.00
C4       1.00015    0.72915    0.99988   1.00
C3a      0.96427    0.79254    0.99942   1.00
C3       0.99318    0.70768    1.03430   1.00
C3       1.03495    0.79232    1.00120   1.00
C3a      1.00759    0.70746    0.96508   1.00
C2       1.00005    0.85512    1.00007   1.00
C2       1.00005    0.64488    1.00006   1.00
C3       0.96495    0.83405    0.99932   1.00
C3       0.99303    0.66637    1.03432   1.00
C3       1.03501    0.83363    1.00105   1.00
C3       1.00735    0.66595    0.96572   1.00
C5       0.92506    0.77228    0.99813   1.00
H1       0.98743    0.72309    1.06129   1.00
H1       0.93784    0.85021    0.99858   1.00
H1       0.98733    0.65099    1.06131   1.00
H1       1.06258    0.84901    1.00167   1.00
H1       1.01282    0.64979    0.93916   1.00
C5       1.01530    0.72772    0.92661   1.00
H1       1.06254    0.77691    1.00176   1.00
H2       1.00920    0.70744    0.90209   1.00
H2       0.99499    0.75269    0.92284   1.00
H2       0.90257    0.79256    0.98659   1.00
H2       0.92603    0.74731    0.97750   1.00
N1       1.05568    0.74143    0.92434   1.00
C6       1.08773    0.71927    0.92308   1.00
C6       1.06749    0.77846    0.92201   1.00
C6       1.12046    0.74241    0.92044   1.00
C6       1.10759    0.78005    0.91975   1.00
H3       1.08752    0.68803    0.92435   1.00
H3       1.04817    0.80300    0.92226   1.00
H3       1.15037    0.73287    0.91913   1.00
H3       1.12545    0.80575    0.91785   1.00
N1       0.91362    0.75857    1.03692   1.00
C6       0.90866    0.72154    1.04789   1.00
C6       0.90508    0.78073    1.06784   1.00
C6       0.89730    0.71995    1.08641   1.00
C6       0.89503    0.75759    1.09910   1.00
H3       0.91331    0.69700    1.02914   1.00
H3       0.90636    0.81197    1.06793   1.00
H3       0.89136    0.69425    1.10337   1.00
H3       0.88691    0.76713    1.12792   1.00
C4       1.00012    0.99985    0.77085   1.00
C4       0.99988    1.00015    0.72915   1.00
C3a      0.99942    0.96427    0.79254   1.00
C3       1.03430    0.99318    0.70768   1.00
C3       1.00120    1.03495    0.79232   1.00
C3a      0.96508    1.00759    0.70746   1.00
C2       1.00007    1.00005    0.85512   1.00
C2       1.00006    1.00005    0.64488   1.00
C3       0.99932    0.96495    0.83405   1.00
C3       1.03432    0.99303    0.66637   1.00
C3       1.00105    1.03501    0.83363   1.00
C3       0.96572    1.00735    0.66595   1.00
C5       0.99813    0.92506    0.77228   1.00
H1       1.06129    0.98743    0.72309   1.00
H1       0.99858    0.93784    0.85021   1.00
H1       1.06131    0.98733    0.65099   1.00
H1       1.00167    1.06258    0.84901   1.00
H1       0.93916    1.01282    0.64979   1.00
C5       0.92661    1.01530    0.72772   1.00
H1       1.00176    1.06254    0.77691   1.00
H2       0.90209    1.00920    0.70744   1.00
H2       0.92284    0.99499    0.75269   1.00
H2       0.98659    0.90257    0.79256   1.00
H2       0.97750    0.92603    0.74731   1.00
N1       0.92434    1.05568    0.74143   1.00
C6       0.92308    1.08773    0.71927   1.00
C6       0.92201    1.06749    0.77846   1.00
C6       0.92044    1.12046    0.74241   1.00
C6       0.91975    1.10759    0.78005   1.00
H3       0.92435    1.08752    0.68803   1.00
H3       0.92226    1.04817    0.80300   1.00
H3       0.91913    1.15037    0.73287   1.00
H3       0.91785    1.12545    0.80575   1.00
N1       1.03692    0.91362    0.75857   1.00
C6       1.04789    0.90866    0.72154   1.00
C6       1.06784    0.90508    0.78073   1.00
C6       1.08641    0.89730    0.71995   1.00
C6       1.09910    0.89503    0.75759   1.00
H3       1.02914    0.91331    0.69700   1.00
H3       1.06793    0.90636    0.81197   1.00
H3       1.10337    0.89136    0.69425   1.00
H3       1.12792    0.88691    0.76713   1.00
C4       0.50012    0.50015    1.22915   1.00
C4       0.49988    0.49985    1.27085   1.00
C3a      0.49942    0.53573    1.20746   1.00
C3       0.53430    0.50682    1.29232   1.00
C3       0.50120    0.46505    1.20768   1.00
C3a      0.46508    0.49241    1.29254   1.00
C2       0.50007    0.49995    1.14488   1.00
C2       0.50006    0.49995    1.35512   1.00
C3       0.49932    0.53505    1.16595   1.00
C3       0.53432    0.50697    1.33363   1.00
C3       0.50105    0.46499    1.16637   1.00
C3       0.46572    0.49265    1.33405   1.00
C5       0.49813    0.57494    1.22772   1.00
H1       0.56129    0.51257    1.27691   1.00
H1       0.49858    0.56216    1.14979   1.00
H1       0.56131    0.51267    1.34901   1.00
H1       0.50167    0.43742    1.15099   1.00
H1       0.43916    0.48718    1.35021   1.00
C5       0.42661    0.48470    1.27228   1.00
H1       0.50176    0.43746    1.22309   1.00
H2       0.40209    0.49080    1.29256   1.00
H2       0.42284    0.50501    1.24731   1.00
H2       0.48659    0.59743    1.20744   1.00
H2       0.47750    0.57397    1.25269   1.00
N1       0.42434    0.44432    1.25857   1.00
C6       0.42308    0.41227    1.28073   1.00
C6       0.42201    0.43251    1.22154   1.00
C6       0.42044    0.37954    1.25759   1.00
C6       0.41975    0.39241    1.21995   1.00
H3       0.42435    0.41248    1.31197   1.00
H3       0.42226    0.45183    1.19700   1.00
H3       0.41913    0.34963    1.26713   1.00
H3       0.41785    0.37455    1.19425   1.00
N1       0.53692    0.58638    1.24143   1.00
C6       0.54789    0.59134    1.27846   1.00
C6       0.56784    0.59492    1.21927   1.00
C6       0.58641    0.60270    1.28005   1.00
C6       0.59910    0.60497    1.24241   1.00
H3       0.52914    0.58669    1.30300   1.00
H3       0.56793    0.59364    1.18803   1.00
H3       0.60337    0.60864    1.30575   1.00
H3       0.62792    0.61309    1.23287   1.00
C4       0.50015    0.72915    1.00012   1.00
C4       0.49985    0.77085    0.99988   1.00
C3a      0.53573    0.70746    0.99942   1.00
C3       0.50682    0.79232    1.03430   1.00
C3       0.46505    0.70768    1.00120   1.00
C3a      0.49241    0.79254    0.96508   1.00
C2       0.49995    0.64488    1.00007   1.00
C2       0.49995    0.85512    1.00006   1.00
C3       0.53505    0.66595    0.99932   1.00
C3       0.50697    0.83363    1.03432   1.00
C3       0.46499    0.66637    1.00105   1.00
C3       0.49265    0.83405    0.96572   1.00
C5       0.57494    0.72772    0.99813   1.00
H1       0.51257    0.77691    1.06129   1.00
H1       0.56216    0.64979    0.99858   1.00
H1       0.51267    0.84901    1.06131   1.00
H1       0.43742    0.65099    1.00167   1.00
H1       0.48718    0.85021    0.93916   1.00
C5       0.48470    0.77228    0.92661   1.00
H1       0.43746    0.72309    1.00176   1.00
H2       0.49080    0.79256    0.90209   1.00
H2       0.50501    0.74731    0.92284   1.00
H2       0.59743    0.70744    0.98659   1.00
H2       0.57397    0.75269    0.97750   1.00
N1       0.44432    0.75857    0.92434   1.00
C6       0.41227    0.78073    0.92308   1.00
C6       0.43251    0.72154    0.92201   1.00
C6       0.37954    0.75759    0.92044   1.00
C6       0.39241    0.71995    0.91975   1.00
H3       0.41248    0.81197    0.92435   1.00
H3       0.45183    0.69700    0.92226   1.00
H3       0.34963    0.76713    0.91913   1.00
H3       0.37455    0.69425    0.91785   1.00
N1       0.58638    0.74143    1.03692   1.00
C6       0.59134    0.77846    1.04789   1.00
C6       0.59492    0.71927    1.06784   1.00
C6       0.60270    0.78005    1.08641   1.00
C6       0.60497    0.74241    1.09910   1.00
H3       0.58669    0.80300    1.02914   1.00
H3       0.59364    0.68803    1.06793   1.00
H3       0.60864    0.80575    1.10337   1.00
H3       0.61309    0.73287    1.12792   1.00
C4       0.27085    0.50012    0.99985   1.00
C4       0.22915    0.49988    1.00015   1.00
C3a      0.29254    0.49942    0.96427   1.00
C3       0.20768    0.53430    0.99318   1.00
C3       0.29232    0.50120    1.03495   1.00
C3a      0.20746    0.46508    1.00759   1.00
C2       0.35512    0.50007    1.00005   1.00
C2       0.14488    0.50006    1.00005   1.00
C3       0.33405    0.49932    0.96495   1.00
C3       0.16637    0.53432    0.99303   1.00
C3       0.33363    0.50105    1.03501   1.00
C3       0.16595    0.46572    1.00735   1.00
C5       0.27228    0.49813    0.92506   1.00
H1       0.22309    0.56129    0.98743   1.00
H1       0.35021    0.49858    0.93784   1.00
H1       0.15099    0.56131    0.98733   1.00
H1       0.34901    0.50167    1.06258   1.00
H1       0.14979    0.43916    1.01282   1.00
C5       0.22772    0.42661    1.01530   1.00
H1       0.27691    0.50176    1.06254   1.00
H2       0.20744    0.40209    1.00920   1.00
H2       0.25269    0.42284    0.99499   1.00
H2       0.29256    0.48659    0.90257   1.00
H2       0.24731    0.47750    0.92603   1.00
N1       0.24143    0.42434    1.05568   1.00
C6       0.21927    0.42308    1.08773   1.00
C6       0.27846    0.42201    1.06749   1.00
C6       0.24241    0.42044    1.12046   1.00
C6       0.28005    0.41975    1.10759   1.00
H3       0.18803    0.42435    1.08752   1.00
H3       0.30300    0.42226    1.04817   1.00
H3       0.23287    0.41913    1.15037   1.00
H3       0.30575    0.41785    1.12545   1.00
N1       0.25857    0.53692    0.91362   1.00
C6       0.22154    0.54789    0.90866   1.00
C6       0.28073    0.56784    0.90508   1.00
C6       0.21995    0.58641    0.89730   1.00
C6       0.25759    0.59910    0.89503   1.00
H3       0.19700    0.52914    0.91331   1.00
H3       0.31197    0.56793    0.90636   1.00
H3       0.19425    0.60337    0.89136   1.00
H3       0.26713    0.62792    0.88691   1.00
C4       0.72915    0.50012    1.00015   1.00
C4       0.77085    0.49988    0.99985   1.00
C3a      0.70746    0.49942    1.03573   1.00
C3       0.79232    0.53430    1.00682   1.00
C3       0.70768    0.50120    0.96505   1.00
C3a      0.79254    0.46508    0.99241   1.00
C2       0.64488    0.50007    0.99995   1.00
C2       0.85512    0.50006    0.99995   1.00
C3       0.66595    0.49932    1.03505   1.00
C3       0.83363    0.53432    1.00697   1.00
C3       0.66637    0.50105    0.96499   1.00
C3       0.83405    0.46572    0.99265   1.00
C5       0.72772    0.49813    1.07494   1.00
H1       0.77691    0.56129    1.01257   1.00
H1       0.64979    0.49858    1.06216   1.00
H1       0.84901    0.56131    1.01267   1.00
H1       0.65099    0.50167    0.93742   1.00
H1       0.85021    0.43916    0.98718   1.00
C5       0.77228    0.42661    0.98470   1.00
H1       0.72309    0.50176    0.93746   1.00
H2       0.79256    0.40209    0.99080   1.00
H2       0.74731    0.42284    1.00501   1.00
H2       0.70744    0.48659    1.09743   1.00
H2       0.75269    0.47750    1.07397   1.00
N1       0.75857    0.42434    0.94432   1.00
C6       0.78073    0.42308    0.91227   1.00
C6       0.72154    0.42201    0.93251   1.00
C6       0.75759    0.42044    0.87954   1.00
C6       0.71995    0.41975    0.89241   1.00
H3       0.81197    0.42435    0.91248   1.00
H3       0.69700    0.42226    0.95183   1.00
H3       0.76713    0.41913    0.84963   1.00
H3       0.69425    0.41785    0.87455   1.00
N1       0.74143    0.53692    1.08638   1.00
C6       0.77846    0.54789    1.09134   1.00
C6       0.71927    0.56784    1.09492   1.00
C6       0.78005    0.58641    1.10270   1.00
C6       0.74241    0.59910    1.10497   1.00
H3       0.80300    0.52914    1.08669   1.00
H3       0.68803    0.56793    1.09364   1.00
H3       0.80575    0.60337    1.10864   1.00
H3       0.73287    0.62792    1.11309   1.00
C4       0.49985    0.27085    1.00012   1.00
C4       0.50015    0.22915    0.99988   1.00
C3a      0.46427    0.29254    0.99942   1.00
C3       0.49318    0.20768    1.03430   1.00
C3       0.53495    0.29232    1.00120   1.00
C3a      0.50759    0.20746    0.96508   1.00
C2       0.50005    0.35512    1.00007   1.00
C2       0.50005    0.14488    1.00006   1.00
C3       0.46495    0.33405    0.99932   1.00
C3       0.49303    0.16637    1.03432   1.00
C3       0.53501    0.33363    1.00105   1.00
C3       0.50735    0.16595    0.96572   1.00
C5       0.42506    0.27228    0.99813   1.00
H1       0.48743    0.22309    1.06129   1.00
H1       0.43784    0.35021    0.99858   1.00
H1       0.48733    0.15099    1.06131   1.00
H1       0.56258    0.34901    1.00167   1.00
H1       0.51282    0.14979    0.93916   1.00
C5       0.51530    0.22772    0.92661   1.00
H1       0.56254    0.27691    1.00176   1.00
H2       0.50920    0.20744    0.90209   1.00
H2       0.49499    0.25269    0.92284   1.00
H2       0.40257    0.29256    0.98659   1.00
H2       0.42603    0.24731    0.97750   1.00
N1       0.55568    0.24143    0.92434   1.00
C6       0.58773    0.21927    0.92308   1.00
C6       0.56749    0.27846    0.92201   1.00
C6       0.62046    0.24241    0.92044   1.00
C6       0.60759    0.28005    0.91975   1.00
H3       0.58752    0.18803    0.92435   1.00
H3       0.54817    0.30300    0.92226   1.00
H3       0.65037    0.23287    0.91913   1.00
H3       0.62545    0.30575    0.91785   1.00
N1       0.41362    0.25857    1.03692   1.00
C6       0.40866    0.22154    1.04789   1.00
C6       0.40508    0.28073    1.06784   1.00
C6       0.39730    0.21995    1.08641   1.00
C6       0.39503    0.25759    1.09910   1.00
H3       0.41331    0.19700    1.02914   1.00
H3       0.40636    0.31197    1.06793   1.00
H3       0.39136    0.19425    1.10337   1.00
H3       0.38691    0.26713    1.12792   1.00
C4       0.50012    0.49985    0.77085   1.00
C4       0.49988    0.50015    0.72915   1.00
C3a      0.49942    0.46427    0.79254   1.00
C3       0.53430    0.49318    0.70768   1.00
C3       0.50120    0.53495    0.79232   1.00
C3a      0.46508    0.50759    0.70746   1.00
C2       0.50007    0.50005    0.85512   1.00
C2       0.50006    0.50005    0.64488   1.00
C3       0.49932    0.46495    0.83405   1.00
C3       0.53432    0.49303    0.66637   1.00
C3       0.50105    0.53501    0.83363   1.00
C3       0.46572    0.50735    0.66595   1.00
C5       0.49813    0.42506    0.77228   1.00
H1       0.56129    0.48743    0.72309   1.00
H1       0.49858    0.43784    0.85021   1.00
H1       0.56131    0.48733    0.65099   1.00
H1       0.50167    0.56258    0.84901   1.00
H1       0.43916    0.51282    0.64979   1.00
C5       0.42661    0.51530    0.72772   1.00
H1       0.50176    0.56254    0.77691   1.00
H2       0.40209    0.50920    0.70744   1.00
H2       0.42284    0.49499    0.75269   1.00
H2       0.48659    0.40257    0.79256   1.00
H2       0.47750    0.42603    0.74731   1.00
N1       0.42434    0.55568    0.74143   1.00
C6       0.42308    0.58773    0.71927   1.00
C6       0.42201    0.56749    0.77846   1.00
C6       0.42044    0.62046    0.74241   1.00
C6       0.41975    0.60759    0.78005   1.00
H3       0.42435    0.58752    0.68803   1.00
H3       0.42226    0.54817    0.80300   1.00
H3       0.41913    0.65037    0.73287   1.00
H3       0.41785    0.62545    0.80575   1.00
N1       0.53692    0.41362    0.75857   1.00
C6       0.54789    0.40866    0.72154   1.00
C6       0.56784    0.40508    0.78073   1.00
C6       0.58641    0.39730    0.71995   1.00
C6       0.59910    0.39503    0.75759   1.00
H3       0.52914    0.41331    0.69700   1.00
H3       0.56793    0.40636    0.81197   1.00
H3       0.60337    0.39136    0.69425   1.00
H3       0.62792    0.38691    0.76713   1.00
C4       0.50012    1.00015    0.72915   1.00
C4       0.49988    0.99985    0.77085   1.00
C3a      0.49942    1.03573    0.70746   1.00
C3       0.53430    1.00682    0.79232   1.00
C3       0.50120    0.96505    0.70768   1.00
C3a      0.46508    0.99241    0.79254   1.00
C2       0.50007    0.99995    0.64488   1.00
C2       0.50006    0.99995    0.85512   1.00
C3       0.49932    1.03505    0.66595   1.00
C3       0.53432    1.00697    0.83363   1.00
C3       0.50105    0.96499    0.66637   1.00
C3       0.46572    0.99265    0.83405   1.00
C5       0.49813    1.07494    0.72772   1.00
H1       0.56129    1.01257    0.77691   1.00
H1       0.49858    1.06216    0.64979   1.00
H1       0.56131    1.01267    0.84901   1.00
H1       0.50167    0.93742    0.65099   1.00
H1       0.43916    0.98718    0.85021   1.00
C5       0.42661    0.98470    0.77228   1.00
H1       0.50176    0.93746    0.72309   1.00
H2       0.40209    0.99080    0.79256   1.00
H2       0.42284    1.00501    0.74731   1.00
H2       0.48659    1.09743    0.70744   1.00
H2       0.47750    1.07397    0.75269   1.00
N1       0.42434    0.94432    0.75857   1.00
C6       0.42308    0.91227    0.78073   1.00
C6       0.42201    0.93251    0.72154   1.00
C6       0.42044    0.87954    0.75759   1.00
C6       0.41975    0.89241    0.71995   1.00
H3       0.42435    0.91248    0.81197   1.00
H3       0.42226    0.95183    0.69700   1.00
H3       0.41913    0.84963    0.76713   1.00
H3       0.41785    0.87455    0.69425   1.00
N1       0.53692    1.08638    0.74143   1.00
C6       0.54789    1.09134    0.77846   1.00
C6       0.56784    1.09492    0.71927   1.00
C6       0.58641    1.10270    0.78005   1.00
C6       0.59910    1.10497    0.74241   1.00
H3       0.52914    1.08669    0.80300   1.00
H3       0.56793    1.09364    0.68803   1.00
H3       0.60337    1.10864    0.80575   1.00
H3       0.62792    1.11309    0.73287   1.00
C4       0.50015    1.22915    0.50012   1.00
C4       0.49985    1.27085    0.49988   1.00
C3a      0.53573    1.20746    0.49942   1.00
C3       0.50682    1.29232    0.53430   1.00
C3       0.46505    1.20768    0.50120   1.00
C3a      0.49241    1.29254    0.46508   1.00
C2       0.49995    1.14488    0.50007   1.00
C2       0.49995    1.35512    0.50006   1.00
C3       0.53505    1.16595    0.49932   1.00
C3       0.50697    1.33363    0.53432   1.00
C3       0.46499    1.16637    0.50105   1.00
C3       0.49265    1.33405    0.46572   1.00
C5       0.57494    1.22772    0.49813   1.00
H1       0.51257    1.27691    0.56129   1.00
H1       0.56216    1.14979    0.49858   1.00
H1       0.51267    1.34901    0.56131   1.00
H1       0.43742    1.15099    0.50167   1.00
H1       0.48718    1.35021    0.43916   1.00
C5       0.48470    1.27228    0.42661   1.00
H1       0.43746    1.22309    0.50176   1.00
H2       0.49080    1.29256    0.40209   1.00
H2       0.50501    1.24731    0.42284   1.00
H2       0.59743    1.20744    0.48659   1.00
H2       0.57397    1.25269    0.47750   1.00
N1       0.44432    1.25857    0.42434   1.00
C6       0.41227    1.28073    0.42308   1.00
C6       0.43251    1.22154    0.42201   1.00
C6       0.37954    1.25759    0.42044   1.00
C6       0.39241    1.21995    0.41975   1.00
H3       0.41248    1.31197    0.42435   1.00
H3       0.45183    1.19700    0.42226   1.00
H3       0.34963    1.26713    0.41913   1.00
H3       0.37455    1.19425    0.41785   1.00
N1       0.58638    1.24143    0.53692   1.00
C6       0.59134    1.27846    0.54789   1.00
C6       0.59492    1.21927    0.56784   1.00
C6       0.60270    1.28005    0.58641   1.00
C6       0.60497    1.24241    0.59910   1.00
H3       0.58669    1.30300    0.52914   1.00
H3       0.59364    1.18803    0.56793   1.00
H3       0.60864    1.30575    0.60337   1.00
H3       0.61309    1.23287    0.62792   1.00
C4       0.27085    1.00012    0.49985   1.00
C4       0.22915    0.99988    0.50015   1.00
C3a      0.29254    0.99942    0.46427   1.00
C3       0.20768    1.03430    0.49318   1.00
C3       0.29232    1.00120    0.53495   1.00
C3a      0.20746    0.96508    0.50759   1.00
C2       0.35512    1.00007    0.50005   1.00
C2       0.14488    1.00006    0.50005   1.00
C3       0.33405    0.99932    0.46495   1.00
C3       0.16637    1.03432    0.49303   1.00
C3       0.33363    1.00105    0.53501   1.00
C3       0.16595    0.96572    0.50735   1.00
C5       0.27228    0.99813    0.42506   1.00
H1       0.22309    1.06129    0.48743   1.00
H1       0.35021    0.99858    0.43784   1.00
H1       0.15099    1.06131    0.48733   1.00
H1       0.34901    1.00167    0.56258   1.00
H1       0.14979    0.93916    0.51282   1.00
C5       0.22772    0.92661    0.51530   1.00
H1       0.27691    1.00176    0.56254   1.00
H2       0.20744    0.90209    0.50920   1.00
H2       0.25269    0.92284    0.49499   1.00
H2       0.29256    0.98659    0.40257   1.00
H2       0.24731    0.97750    0.42603   1.00
N1       0.24143    0.92434    0.55568   1.00
C6       0.21927    0.92308    0.58773   1.00
C6       0.27846    0.92201    0.56749   1.00
C6       0.24241    0.92044    0.62046   1.00
C6       0.28005    0.91975    0.60759   1.00
H3       0.18803    0.92435    0.58752   1.00
H3       0.30300    0.92226    0.54817   1.00
H3       0.23287    0.91913    0.65037   1.00
H3       0.30575    0.91785    0.62545   1.00
N1       0.25857    1.03692    0.41362   1.00
C6       0.22154    1.04789    0.40866   1.00
C6       0.28073    1.06784    0.40508   1.00
C6       0.21995    1.08641    0.39730   1.00
C6       0.25759    1.09910    0.39503   1.00
H3       0.19700    1.02914    0.41331   1.00
H3       0.31197    1.06793    0.40636   1.00
H3       0.19425    1.10337    0.39136   1.00
H3       0.26713    1.12792    0.38691   1.00
C4       0.72915    1.00012    0.50015   1.00
C4       0.77085    0.99988    0.49985   1.00
C3a      0.70746    0.99942    0.53573   1.00
C3       0.79232    1.03430    0.50682   1.00
C3       0.70768    1.00120    0.46505   1.00
C3a      0.79254    0.96508    0.49241   1.00
C2       0.64488    1.00007    0.49995   1.00
C2       0.85512    1.00006    0.49995   1.00
C3       0.66595    0.99932    0.53505   1.00
C3       0.83363    1.03432    0.50697   1.00
C3       0.66637    1.00105    0.46499   1.00
C3       0.83405    0.96572    0.49265   1.00
C5       0.72772    0.99813    0.57494   1.00
H1       0.77691    1.06129    0.51257   1.00
H1       0.64979    0.99858    0.56216   1.00
H1       0.84901    1.06131    0.51267   1.00
H1       0.65099    1.00167    0.43742   1.00
H1       0.85021    0.93916    0.48718   1.00
C5       0.77228    0.92661    0.48470   1.00
H1       0.72309    1.00176    0.43746   1.00
H2       0.79256    0.90209    0.49080   1.00
H2       0.74731    0.92284    0.50501   1.00
H2       0.70744    0.98659    0.59743   1.00
H2       0.75269    0.97750    0.57397   1.00
N1       0.75857    0.92434    0.44432   1.00
C6       0.78073    0.92308    0.41227   1.00
C6       0.72154    0.92201    0.43251   1.00
C6       0.75759    0.92044    0.37954   1.00
C6       0.71995    0.91975    0.39241   1.00
H3       0.81197    0.92435    0.41248   1.00
H3       0.69700    0.92226    0.45183   1.00
H3       0.76713    0.91913    0.34963   1.00
H3       0.69425    0.91785    0.37455   1.00
N1       0.74143    1.03692    0.58638   1.00
C6       0.77846    1.04789    0.59134   1.00
C6       0.71927    1.06784    0.59492   1.00
C6       0.78005    1.08641    0.60270   1.00
C6       0.74241    1.09910    0.60497   1.00
H3       0.80300    1.02914    0.58669   1.00
H3       0.68803    1.06793    0.59364   1.00
H3       0.80575    1.10337    0.60864   1.00
H3       0.73287    1.12792    0.61309   1.00
C4       0.49985    0.77085    0.50012   1.00
C4       0.50015    0.72915    0.49988   1.00
C3a      0.46427    0.79254    0.49942   1.00
C3       0.49318    0.70768    0.53430   1.00
C3       0.53495    0.79232    0.50120   1.00
C3a      0.50759    0.70746    0.46508   1.00
C2       0.50005    0.85512    0.50007   1.00
C2       0.50005    0.64488    0.50006   1.00
C3       0.46495    0.83405    0.49932   1.00
C3       0.49303    0.66637    0.53432   1.00
C3       0.53501    0.83363    0.50105   1.00
C3       0.50735    0.66595    0.46572   1.00
C5       0.42506    0.77228    0.49813   1.00
H1       0.48743    0.72309    0.56129   1.00
H1       0.43784    0.85021    0.49858   1.00
H1       0.48733    0.65099    0.56131   1.00
H1       0.56258    0.84901    0.50167   1.00
H1       0.51282    0.64979    0.43916   1.00
C5       0.51530    0.72772    0.42661   1.00
H1       0.56254    0.77691    0.50176   1.00
H2       0.50920    0.70744    0.40209   1.00
H2       0.49499    0.75269    0.42284   1.00
H2       0.40257    0.79256    0.48659   1.00
H2       0.42603    0.74731    0.47750   1.00
N1       0.55568    0.74143    0.42434   1.00
C6       0.58773    0.71927    0.42308   1.00
C6       0.56749    0.77846    0.42201   1.00
C6       0.62046    0.74241    0.42044   1.00
C6       0.60759    0.78005    0.41975   1.00
H3       0.58752    0.68803    0.42435   1.00
H3       0.54817    0.80300    0.42226   1.00
H3       0.65037    0.73287    0.41913   1.00
H3       0.62545    0.80575    0.41785   1.00
N1       0.41362    0.75857    0.53692   1.00
C6       0.40866    0.72154    0.54789   1.00
C6       0.40508    0.78073    0.56784   1.00
C6       0.39730    0.71995    0.58641   1.00
C6       0.39503    0.75759    0.59910   1.00
H3       0.41331    0.69700    0.52914   1.00
H3       0.40636    0.81197    0.56793   1.00
H3       0.39136    0.69425    0.60337   1.00
H3       0.38691    0.76713    0.62792   1.00
C4       0.50012    0.99985    0.27085   1.00
C4       0.49988    1.00015    0.22915   1.00
C3a      0.49942    0.96427    0.29254   1.00
C3       0.53430    0.99318    0.20768   1.00
C3       0.50120    1.03495    0.29232   1.00
C3a      0.46508    1.00759    0.20746   1.00
C2       0.50007    1.00005    0.35512   1.00
C2       0.50006    1.00005    0.14488   1.00
C3       0.49932    0.96495    0.33405   1.00
C3       0.53432    0.99303    0.16637   1.00
C3       0.50105    1.03501    0.33363   1.00
C3       0.46572    1.00735    0.16595   1.00
C5       0.49813    0.92506    0.27228   1.00
H1       0.56129    0.98743    0.22309   1.00
H1       0.49858    0.93784    0.35021   1.00
H1       0.56131    0.98733    0.15099   1.00
H1       0.50167    1.06258    0.34901   1.00
H1       0.43916    1.01282    0.14979   1.00
C5       0.42661    1.01530    0.22772   1.00
H1       0.50176    1.06254    0.27691   1.00
H2       0.40209    1.00920    0.20744   1.00
H2       0.42284    0.99499    0.25269   1.00
H2       0.48659    0.90257    0.29256   1.00
H2       0.47750    0.92603    0.24731   1.00
N1       0.42434    1.05568    0.24143   1.00
C6       0.42308    1.08773    0.21927   1.00
C6       0.42201    1.06749    0.27846   1.00
C6       0.42044    1.12046    0.24241   1.00
C6       0.41975    1.10759    0.28005   1.00
H3       0.42435    1.08752    0.18803   1.00
H3       0.42226    1.04817    0.30300   1.00
H3       0.41913    1.15037    0.23287   1.00
H3       0.41785    1.12545    0.30575   1.00
N1       0.53692    0.91362    0.25857   1.00
C6       0.54789    0.90866    0.22154   1.00
C6       0.56784    0.90508    0.28073   1.00
C6       0.58641    0.89730    0.21995   1.00
C6       0.59910    0.89503    0.25759   1.00
H3       0.52914    0.91331    0.19700   1.00
H3       0.56793    0.90636    0.31197   1.00
H3       0.60337    0.89136    0.19425   1.00
H3       0.62792    0.88691    0.26713   1.00
C4       1.00012    0.50015    0.72915   1.00
C4       0.99988    0.49985    0.77085   1.00
C3a      0.99942    0.53573    0.70746   1.00
C3       1.03430    0.50682    0.79232   1.00
C3       1.00120    0.46505    0.70768   1.00
C3a      0.96508    0.49241    0.79254   1.00
C2       1.00007    0.49995    0.64488   1.00
C2       1.00006    0.49995    0.85512   1.00
C3       0.99932    0.53505    0.66595   1.00
C3       1.03432    0.50697    0.83363   1.00
C3       1.00105    0.46499    0.66637   1.00
C3       0.96572    0.49265    0.83405   1.00
C5       0.99813    0.57494    0.72772   1.00
H1       1.06129    0.51257    0.77691   1.00
H1       0.99858    0.56216    0.64979   1.00
H1       1.06131    0.51267    0.84901   1.00
H1       1.00167    0.43742    0.65099   1.00
H1       0.93916    0.48718    0.85021   1.00
C5       0.92661    0.48470    0.77228   1.00
H1       1.00176    0.43746    0.72309   1.00
H2       0.90209    0.49080    0.79256   1.00
H2       0.92284    0.50501    0.74731   1.00
H2       0.98659    0.59743    0.70744   1.00
H2       0.97750    0.57397    0.75269   1.00
N1       0.92434    0.44432    0.75857   1.00
C6       0.92308    0.41227    0.78073   1.00
C6       0.92201    0.43251    0.72154   1.00
C6       0.92044    0.37954    0.75759   1.00
C6       0.91975    0.39241    0.71995   1.00
H3       0.92435    0.41248    0.81197   1.00
H3       0.92226    0.45183    0.69700   1.00
H3       0.91913    0.34963    0.76713   1.00
H3       0.91785    0.37455    0.69425   1.00
N1       1.03692    0.58638    0.74143   1.00
C6       1.04789    0.59134    0.77846   1.00
C6       1.06784    0.59492    0.71927   1.00
C6       1.08641    0.60270    0.78005   1.00
C6       1.09910    0.60497    0.74241   1.00
H3       1.02914    0.58669    0.80300   1.00
H3       1.06793    0.59364    0.68803   1.00
H3       1.10337    0.60864    0.80575   1.00
H3       1.12792    0.61309    0.73287   1.00
C4       1.00015    0.72915    0.50012   1.00
C4       0.99985    0.77085    0.49988   1.00
C3a      1.03573    0.70746    0.49942   1.00
C3       1.00682    0.79232    0.53430   1.00
C3       0.96505    0.70768    0.50120   1.00
C3a      0.99241    0.79254    0.46508   1.00
C2       0.99995    0.64488    0.50007   1.00
C2       0.99995    0.85512    0.50006   1.00
C3       1.03505    0.66595    0.49932   1.00
C3       1.00697    0.83363    0.53432   1.00
C3       0.96499    0.66637    0.50105   1.00
C3       0.99265    0.83405    0.46572   1.00
C5       1.07494    0.72772    0.49813   1.00
H1       1.01257    0.77691    0.56129   1.00
H1       1.06216    0.64979    0.49858   1.00
H1       1.01267    0.84901    0.56131   1.00
H1       0.93742    0.65099    0.50167   1.00
H1       0.98718    0.85021    0.43916   1.00
C5       0.98470    0.77228    0.42661   1.00
H1       0.93746    0.72309    0.50176   1.00
H2       0.99080    0.79256    0.40209   1.00
H2       1.00501    0.74731    0.42284   1.00
H2       1.09743    0.70744    0.48659   1.00
H2       1.07397    0.75269    0.47750   1.00
N1       0.94432    0.75857    0.42434   1.00
C6       0.91227    0.78073    0.42308   1.00
C6       0.93251    0.72154    0.42201   1.00
C6       0.87954    0.75759    0.42044   1.00
C6       0.89241    0.71995    0.41975   1.00
H3       0.91248    0.81197    0.42435   1.00
H3       0.95183    0.69700    0.42226   1.00
H3       0.84963    0.76713    0.41913   1.00
H3       0.87455    0.69425    0.41785   1.00
N1       1.08638    0.74143    0.53692   1.00
C6       1.09134    0.77846    0.54789   1.00
C6       1.09492    0.71927    0.56784   1.00
C6       1.10270    0.78005    0.58641   1.00
C6       1.10497    0.74241    0.59910   1.00
H3       1.08669    0.80300    0.52914   1.00
H3       1.09364    0.68803    0.56793   1.00
H3       1.10864    0.80575    0.60337   1.00
H3       1.11309    0.73287    0.62792   1.00
C4       0.77085    0.50012    0.49985   1.00
C4       0.72915    0.49988    0.50015   1.00
C3a      0.79254    0.49942    0.46427   1.00
C3       0.70768    0.53430    0.49318   1.00
C3       0.79232    0.50120    0.53495   1.00
C3a      0.70746    0.46508    0.50759   1.00
C2       0.85512    0.50007    0.50005   1.00
C2       0.64488    0.50006    0.50005   1.00
C3       0.83405    0.49932    0.46495   1.00
C3       0.66637    0.53432    0.49303   1.00
C3       0.83363    0.50105    0.53501   1.00
C3       0.66595    0.46572    0.50735   1.00
C5       0.77228    0.49813    0.42506   1.00
H1       0.72309    0.56129    0.48743   1.00
H1       0.85021    0.49858    0.43784   1.00
H1       0.65099    0.56131    0.48733   1.00
H1       0.84901    0.50167    0.56258   1.00
H1       0.64979    0.43916    0.51282   1.00
C5       0.72772    0.42661    0.51530   1.00
H1       0.77691    0.50176    0.56254   1.00
H2       0.70744    0.40209    0.50920   1.00
H2       0.75269    0.42284    0.49499   1.00
H2       0.79256    0.48659    0.40257   1.00
H2       0.74731    0.47750    0.42603   1.00
N1       0.74143    0.42434    0.55568   1.00
C6       0.71927    0.42308    0.58773   1.00
C6       0.77846    0.42201    0.56749   1.00
C6       0.74241    0.42044    0.62046   1.00
C6       0.78005    0.41975    0.60759   1.00
H3       0.68803    0.42435    0.58752   1.00
H3       0.80300    0.42226    0.54817   1.00
H3       0.73287    0.41913    0.65037   1.00
H3       0.80575    0.41785    0.62545   1.00
N1       0.75857    0.53692    0.41362   1.00
C6       0.72154    0.54789    0.40866   1.00
C6       0.78073    0.56784    0.40508   1.00
C6       0.71995    0.58641    0.39730   1.00
C6       0.75759    0.59910    0.39503   1.00
H3       0.69700    0.52914    0.41331   1.00
H3       0.81197    0.56793    0.40636   1.00
H3       0.69425    0.60337    0.39136   1.00
H3       0.76713    0.62792    0.38691   1.00
C4       1.22915    0.50012    0.50015   1.00
C4       1.27085    0.49988    0.49985   1.00
C3a      1.20746    0.49942    0.53573   1.00
C3       1.29232    0.53430    0.50682   1.00
C3       1.20768    0.50120    0.46505   1.00
C3a      1.29254    0.46508    0.49241   1.00
C2       1.14488    0.50007    0.49995   1.00
C2       1.35512    0.50006    0.49995   1.00
C3       1.16595    0.49932    0.53505   1.00
C3       1.33363    0.53432    0.50697   1.00
C3       1.16637    0.50105    0.46499   1.00
C3       1.33405    0.46572    0.49265   1.00
C5       1.22772    0.49813    0.57494   1.00
H1       1.27691    0.56129    0.51257   1.00
H1       1.14979    0.49858    0.56216   1.00
H1       1.34901    0.56131    0.51267   1.00
H1       1.15099    0.50167    0.43742   1.00
H1       1.35021    0.43916    0.48718   1.00
C5       1.27228    0.42661    0.48470   1.00
H1       1.22309    0.50176    0.43746   1.00
H2       1.29256    0.40209    0.49080   1.00
H2       1.24731    0.42284    0.50501   1.00
H2       1.20744    0.48659    0.59743   1.00
H2       1.25269    0.47750    0.57397   1.00
N1       1.25857    0.42434    0.44432   1.00
C6       1.28073    0.42308    0.41227   1.00
C6       1.22154    0.42201    0.43251   1.00
C6       1.25759    0.42044    0.37954   1.00
C6       1.21995    0.41975    0.39241   1.00
H3       1.31197    0.42435    0.41248   1.00
H3       1.19700    0.42226    0.45183   1.00
H3       1.26713    0.41913    0.34963   1.00
H3       1.19425    0.41785    0.37455   1.00
N1       1.24143    0.53692    0.58638   1.00
C6       1.27846    0.54789    0.59134   1.00
C6       1.21927    0.56784    0.59492   1.00
C6       1.28005    0.58641    0.60270   1.00
C6       1.24241    0.59910    0.60497   1.00
H3       1.30300    0.52914    0.58669   1.00
H3       1.18803    0.56793    0.59364   1.00
H3       1.30575    0.60337    0.60864   1.00
H3       1.23287    0.62792    0.61309   1.00
C4       0.99985    0.27085    0.50012   1.00
C4       1.00015    0.22915    0.49988   1.00
C3a      0.96427    0.29254    0.49942   1.00
C3       0.99318    0.20768    0.53430   1.00
C3       1.03495    0.29232    0.50120   1.00
C3a      1.00759    0.20746    0.46508   1.00
C2       1.00005    0.35512    0.50007   1.00
C2       1.00005    0.14488    0.50006   1.00
C3       0.96495    0.33405    0.49932   1.00
C3       0.99303    0.16637    0.53432   1.00
C3       1.03501    0.33363    0.50105   1.00
C3       1.00735    0.16595    0.46572   1.00
C5       0.92506    0.27228    0.49813   1.00
H1       0.98743    0.22309    0.56129   1.00
H1       0.93784    0.35021    0.49858   1.00
H1       0.98733    0.15099    0.56131   1.00
H1       1.06258    0.34901    0.50167   1.00
H1       1.01282    0.14979    0.43916   1.00
C5       1.01530    0.22772    0.42661   1.00
H1       1.06254    0.27691    0.50176   1.00
H2       1.00920    0.20744    0.40209   1.00
H2       0.99499    0.25269    0.42284   1.00
H2       0.90257    0.29256    0.48659   1.00
H2       0.92603    0.24731    0.47750   1.00
N1       1.05568    0.24143    0.42434   1.00
C6       1.08773    0.21927    0.42308   1.00
C6       1.06749    0.27846    0.42201   1.00
C6       1.12046    0.24241    0.42044   1.00
C6       1.10759    0.28005    0.41975   1.00
H3       1.08752    0.18803    0.42435   1.00
H3       1.04817    0.30300    0.42226   1.00
H3       1.15037    0.23287    0.41913   1.00
H3       1.12545    0.30575    0.41785   1.00
N1       0.91362    0.25857    0.53692   1.00
C6       0.90866    0.22154    0.54789   1.00
C6       0.90508    0.28073    0.56784   1.00
C6       0.89730    0.21995    0.58641   1.00
C6       0.89503    0.25759    0.59910   1.00
H3       0.91331    0.19700    0.52914   1.00
H3       0.90636    0.31197    0.56793   1.00
H3       0.89136    0.19425    0.60337   1.00
H3       0.88691    0.26713    0.62792   1.00
C4       1.00012    0.49985    0.27085   1.00
C4       0.99988    0.50015    0.22915   1.00
C3a      0.99942    0.46427    0.29254   1.00
C3       1.03430    0.49318    0.20768   1.00
C3       1.00120    0.53495    0.29232   1.00
C3a      0.96508    0.50759    0.20746   1.00
C2       1.00007    0.50005    0.35512   1.00
C2       1.00006    0.50005    0.14488   1.00
C3       0.99932    0.46495    0.33405   1.00
C3       1.03432    0.49303    0.16637   1.00
C3       1.00105    0.53501    0.33363   1.00
C3       0.96572    0.50735    0.16595   1.00
C5       0.99813    0.42506    0.27228   1.00
H1       1.06129    0.48743    0.22309   1.00
H1       0.99858    0.43784    0.35021   1.00
H1       1.06131    0.48733    0.15099   1.00
H1       1.00167    0.56258    0.34901   1.00
H1       0.93916    0.51282    0.14979   1.00
C5       0.92661    0.51530    0.22772   1.00
H1       1.00176    0.56254    0.27691   1.00
H2       0.90209    0.50920    0.20744   1.00
H2       0.92284    0.49499    0.25269   1.00
H2       0.98659    0.40257    0.29256   1.00
H2       0.97750    0.42603    0.24731   1.00
N1       0.92434    0.55568    0.24143   1.00
C6       0.92308    0.58773    0.21927   1.00
C6       0.92201    0.56749    0.27846   1.00
C6       0.92044    0.62046    0.24241   1.00
C6       0.91975    0.60759    0.28005   1.00
H3       0.92435    0.58752    0.18803   1.00
H3       0.92226    0.54817    0.30300   1.00
H3       0.91913    0.65037    0.23287   1.00
H3       0.91785    0.62545    0.30575   1.00
N1       1.03692    0.41362    0.25857   1.00
C6       1.04789    0.40866    0.22154   1.00
C6       1.06784    0.40508    0.28073   1.00
C6       1.08641    0.39730    0.21995   1.00
C6       1.09910    0.39503    0.25759   1.00
H3       1.02914    0.41331    0.19700   1.00
H3       1.06793    0.40636    0.31197   1.00
H3       1.10337    0.39136    0.19425   1.00
H3       1.12792    0.38691    0.26713   1.00
