data_IRMOF10_SG202_interpen_Ligand1lp_label_d.

_audit_creation_method             'generated by an auxiliary program of Tobunporous'

_symmetry_space_group_name_H-M     'P 1'
_symmetry_Int_Tables_number        1
_symmetry_cell_setting             triclinic

_cell_length_a                    34.2800
_cell_length_b                    34.2800
_cell_length_c                    34.2800
_cell_angle_alpha                 90.0000
_cell_angle_beta                  90.0000
_cell_angle_gamma                 90.0000

loop_
_atom_site_label
_atom_site_fract_x
_atom_site_fract_y
_atom_site_fract_z
_atom_site_occupancy
O1       0.75000    0.75000    0.75000   1.00
Zn1      0.71720    0.78280    0.78280   1.00
Zn1      0.78280    0.71720    0.78280   1.00
Zn1      0.78280    0.78280    0.71720   1.00
Zn1      0.71720    0.71720    0.71720   1.00
O2       0.72650    0.77350    0.83820   1.00
O2       0.72650    0.83820    0.77350   1.00
O2       0.66180    0.77350    0.77350   1.00
O2       0.77350    0.72650    0.83820   1.00
O2       0.83820    0.72650    0.77350   1.00
O2       0.77350    0.66180    0.77350   1.00
O2       0.77350    0.83820    0.72650   1.00
O2       0.83820    0.77350    0.72650   1.00
O2       0.77350    0.77350    0.66180   1.00
O2       0.66180    0.72650    0.72650   1.00
O2       0.72650    0.66180    0.72650   1.00
O2       0.72650    0.72650    0.66180   1.00
C1       0.75000    0.75000    0.85520   1.00
C1       0.75000    0.85520    0.75000   1.00
C1       0.64480    0.75000    0.75000   1.00
C1       0.85520    0.75000    0.75000   1.00
C1       0.75000    0.64480    0.75000   1.00
C1       0.75000    0.75000    0.64480   1.00
O1       0.25000    0.25000    0.75000   1.00
Zn1      0.21720    0.28280    0.78280   1.00
Zn1      0.28280    0.21720    0.78280   1.00
Zn1      0.28280    0.28280    0.71720   1.00
Zn1      0.21720    0.21720    0.71720   1.00
O2       0.22650    0.27350    0.83820   1.00
O2       0.22650    0.33820    0.77350   1.00
O2       0.16180    0.27350    0.77350   1.00
O2       0.27350    0.22650    0.83820   1.00
O2       0.33820    0.22650    0.77350   1.00
O2       0.27350    0.16180    0.77350   1.00
O2       0.27350    0.33820    0.72650   1.00
O2       0.33820    0.27350    0.72650   1.00
O2       0.27350    0.27350    0.66180   1.00
O2       0.16180    0.22650    0.72650   1.00
O2       0.22650    0.16180    0.72650   1.00
O2       0.22650    0.22650    0.66180   1.00
C1       0.25000    0.25000    0.85520   1.00
C1       0.25000    0.35520    0.75000   1.00
C1       0.14480    0.25000    0.75000   1.00
C1       0.35520    0.25000    0.75000   1.00
C1       0.25000    0.14480    0.75000   1.00
C1       0.25000    0.25000    0.64480   1.00
O1       0.25000    0.75000    0.25000   1.00
Zn1      0.21720    0.78280    0.28280   1.00
Zn1      0.28280    0.71720    0.28280   1.00
Zn1      0.28280    0.78280    0.21720   1.00
Zn1      0.21720    0.71720    0.21720   1.00
O2       0.22650    0.77350    0.33820   1.00
O2       0.22650    0.83820    0.27350   1.00
O2       0.16180    0.77350    0.27350   1.00
O2       0.27350    0.72650    0.33820   1.00
O2       0.33820    0.72650    0.27350   1.00
O2       0.27350    0.66180    0.27350   1.00
O2       0.27350    0.83820    0.22650   1.00
O2       0.33820    0.77350    0.22650   1.00
O2       0.27350    0.77350    0.16180   1.00
O2       0.16180    0.72650    0.22650   1.00
O2       0.22650    0.66180    0.22650   1.00
O2       0.22650    0.72650    0.16180   1.00
C1       0.25000    0.75000    0.35520   1.00
C1       0.25000    0.85520    0.25000   1.00
C1       0.14480    0.75000    0.25000   1.00
C1       0.35520    0.75000    0.25000   1.00
C1       0.25000    0.64480    0.25000   1.00
C1       0.25000    0.75000    0.14480   1.00
O1       0.75000    0.25000    0.25000   1.00
Zn1      0.71720    0.28280    0.28280   1.00
Zn1      0.78280    0.21720    0.28280   1.00
Zn1      0.78280    0.28280    0.21720   1.00
Zn1      0.71720    0.21720    0.21720   1.00
O2       0.72650    0.27350    0.33820   1.00
O2       0.72650    0.33820    0.27350   1.00
O2       0.66180    0.27350    0.27350   1.00
O2       0.77350    0.22650    0.33820   1.00
O2       0.83820    0.22650    0.27350   1.00
O2       0.77350    0.16180    0.27350   1.00
O2       0.77350    0.33820    0.22650   1.00
O2       0.83820    0.27350    0.22650   1.00
O2       0.77350    0.27350    0.16180   1.00
O2       0.66180    0.22650    0.22650   1.00
O2       0.72650    0.16180    0.22650   1.00
O2       0.72650    0.22650    0.16180   1.00
C1       0.75000    0.25000    0.35520   1.00
C1       0.75000    0.35520    0.25000   1.00
C1       0.64480    0.25000    0.25000   1.00
C1       0.85520    0.25000    0.25000   1.00
C1       0.75000    0.14480    0.25000   1.00
C1       0.75000    0.25000    0.14480   1.00
O1       0.25000    0.25000    0.25000   1.00
Zn1      0.28280    0.21720    0.21720   1.00
Zn1      0.21720    0.28280    0.21720   1.00
Zn1      0.21720    0.21720    0.28280   1.00
Zn1      0.28280    0.28280    0.28280   1.00
O2       0.27350    0.22650    0.16180   1.00
O2       0.27350    0.16180    0.22650   1.00
O2       0.33820    0.22650    0.22650   1.00
O2       0.22650    0.27350    0.16180   1.00
O2       0.16180    0.27350    0.22650   1.00
O2       0.22650    0.33820    0.22650   1.00
O2       0.22650    0.16180    0.27350   1.00
O2       0.16180    0.22650    0.27350   1.00
O2       0.22650    0.22650    0.33820   1.00
O2       0.33820    0.27350    0.27350   1.00
O2       0.27350    0.33820    0.27350   1.00
O2       0.27350    0.27350    0.33820   1.00
C1       0.25000    0.25000    0.14480   1.00
C1       0.25000    0.14480    0.25000   1.00
C1       0.35520    0.25000    0.25000   1.00
C1       0.14480    0.25000    0.25000   1.00
C1       0.25000    0.35520    0.25000   1.00
C1       0.25000    0.25000    0.35520   1.00
O1       0.75000    0.75000    0.25000   1.00
Zn1      0.78280    0.71720    0.21720   1.00
Zn1      0.71720    0.78280    0.21720   1.00
Zn1      0.71720    0.71720    0.28280   1.00
Zn1      0.78280    0.78280    0.28280   1.00
O2       0.77350    0.72650    0.16180   1.00
O2       0.77350    0.66180    0.22650   1.00
O2       0.83820    0.72650    0.22650   1.00
O2       0.72650    0.77350    0.16180   1.00
O2       0.66180    0.77350    0.22650   1.00
O2       0.72650    0.83820    0.22650   1.00
O2       0.72650    0.66180    0.27350   1.00
O2       0.66180    0.72650    0.27350   1.00
O2       0.72650    0.72650    0.33820   1.00
O2       0.83820    0.77350    0.27350   1.00
O2       0.77350    0.83820    0.27350   1.00
O2       0.77350    0.77350    0.33820   1.00
C1       0.75000    0.75000    0.14480   1.00
C1       0.75000    0.64480    0.25000   1.00
C1       0.85520    0.75000    0.25000   1.00
C1       0.64480    0.75000    0.25000   1.00
C1       0.75000    0.85520    0.25000   1.00
C1       0.75000    0.75000    0.35520   1.00
O1       0.75000    0.25000    0.75000   1.00
Zn1      0.78280    0.21720    0.71720   1.00
Zn1      0.71720    0.28280    0.71720   1.00
Zn1      0.71720    0.21720    0.78280   1.00
Zn1      0.78280    0.28280    0.78280   1.00
O2       0.77350    0.22650    0.66180   1.00
O2       0.77350    0.16180    0.72650   1.00
O2       0.83820    0.22650    0.72650   1.00
O2       0.72650    0.27350    0.66180   1.00
O2       0.66180    0.27350    0.72650   1.00
O2       0.72650    0.33820    0.72650   1.00
O2       0.72650    0.16180    0.77350   1.00
O2       0.66180    0.22650    0.77350   1.00
O2       0.72650    0.22650    0.83820   1.00
O2       0.83820    0.27350    0.77350   1.00
O2       0.77350    0.33820    0.77350   1.00
O2       0.77350    0.27350    0.83820   1.00
C1       0.75000    0.25000    0.64480   1.00
C1       0.75000    0.14480    0.75000   1.00
C1       0.85520    0.25000    0.75000   1.00
C1       0.64480    0.25000    0.75000   1.00
C1       0.75000    0.35520    0.75000   1.00
C1       0.75000    0.25000    0.85520   1.00
O1       0.25000    0.75000    0.75000   1.00
Zn1      0.28280    0.71720    0.71720   1.00
Zn1      0.21720    0.78280    0.71720   1.00
Zn1      0.21720    0.71720    0.78280   1.00
Zn1      0.28280    0.78280    0.78280   1.00
O2       0.27350    0.72650    0.66180   1.00
O2       0.27350    0.66180    0.72650   1.00
O2       0.33820    0.72650    0.72650   1.00
O2       0.22650    0.77350    0.66180   1.00
O2       0.16180    0.77350    0.72650   1.00
O2       0.22650    0.83820    0.72650   1.00
O2       0.22650    0.66180    0.77350   1.00
O2       0.16180    0.72650    0.77350   1.00
O2       0.22650    0.72650    0.83820   1.00
O2       0.33820    0.77350    0.77350   1.00
O2       0.27350    0.83820    0.77350   1.00
O2       0.27350    0.77350    0.83820   1.00
C1       0.25000    0.75000    0.64480   1.00
C1       0.25000    0.64480    0.75000   1.00
C1       0.35520    0.75000    0.75000   1.00
C1       0.14480    0.75000    0.75000   1.00
C1       0.25000    0.85520    0.75000   1.00
C1       0.25000    0.75000    0.85520   1.00
O1       1.00000    1.00000    1.00000   1.00
Zn1      0.96720    1.03280    1.03280   1.00
Zn1      1.03280    0.96720    1.03280   1.00
Zn1      1.03280    1.03280    0.96720   1.00
Zn1      0.96720    0.96720    0.96720   1.00
O2       0.97650    1.02350    1.08820   1.00
O2       0.97650    1.08820    1.02350   1.00
O2       0.91180    1.02350    1.02350   1.00
O2       1.02350    0.97650    1.08820   1.00
O2       1.08820    0.97650    1.02350   1.00
O2       1.02350    0.91180    1.02350   1.00
O2       1.02350    1.08820    0.97650   1.00
O2       1.08820    1.02350    0.97650   1.00
O2       1.02350    1.02350    0.91180   1.00
O2       0.91180    0.97650    0.97650   1.00
O2       0.97650    0.91180    0.97650   1.00
O2       0.97650    0.97650    0.91180   1.00
C1       1.00000    1.00000    1.10520   1.00
C1       1.00000    1.10520    1.00000   1.00
C1       0.89480    1.00000    1.00000   1.00
C1       1.10520    1.00000    1.00000   1.00
C1       1.00000    0.89480    1.00000   1.00
C1       1.00000    1.00000    0.89480   1.00
O1       0.50000    0.50000    1.00000   1.00
Zn1      0.46720    0.53280    1.03280   1.00
Zn1      0.53280    0.46720    1.03280   1.00
Zn1      0.53280    0.53280    0.96720   1.00
Zn1      0.46720    0.46720    0.96720   1.00
O2       0.47650    0.52350    1.08820   1.00
O2       0.47650    0.58820    1.02350   1.00
O2       0.41180    0.52350    1.02350   1.00
O2       0.52350    0.47650    1.08820   1.00
O2       0.58820    0.47650    1.02350   1.00
O2       0.52350    0.41180    1.02350   1.00
O2       0.52350    0.58820    0.97650   1.00
O2       0.58820    0.52350    0.97650   1.00
O2       0.52350    0.52350    0.91180   1.00
O2       0.41180    0.47650    0.97650   1.00
O2       0.47650    0.41180    0.97650   1.00
O2       0.47650    0.47650    0.91180   1.00
C1       0.50000    0.50000    1.10520   1.00
C1       0.50000    0.60520    1.00000   1.00
C1       0.39480    0.50000    1.00000   1.00
C1       0.60520    0.50000    1.00000   1.00
C1       0.50000    0.39480    1.00000   1.00
C1       0.50000    0.50000    0.89480   1.00
O1       0.50000    1.00000    0.50000   1.00
Zn1      0.46720    1.03280    0.53280   1.00
Zn1      0.53280    0.96720    0.53280   1.00
Zn1      0.53280    1.03280    0.46720   1.00
Zn1      0.46720    0.96720    0.46720   1.00
O2       0.47650    1.02350    0.58820   1.00
O2       0.47650    1.08820    0.52350   1.00
O2       0.41180    1.02350    0.52350   1.00
O2       0.52350    0.97650    0.58820   1.00
O2       0.58820    0.97650    0.52350   1.00
O2       0.52350    0.91180    0.52350   1.00
O2       0.52350    1.08820    0.47650   1.00
O2       0.58820    1.02350    0.47650   1.00
O2       0.52350    1.02350    0.41180   1.00
O2       0.41180    0.97650    0.47650   1.00
O2       0.47650    0.91180    0.47650   1.00
O2       0.47650    0.97650    0.41180   1.00
C1       0.50000    1.00000    0.60520   1.00
C1       0.50000    1.10520    0.50000   1.00
C1       0.39480    1.00000    0.50000   1.00
C1       0.60520    1.00000    0.50000   1.00
C1       0.50000    0.89480    0.50000   1.00
C1       0.50000    1.00000    0.39480   1.00
O1       1.00000    0.50000    0.50000   1.00
Zn1      0.96720    0.53280    0.53280   1.00
Zn1      1.03280    0.46720    0.53280   1.00
Zn1      1.03280    0.53280    0.46720   1.00
Zn1      0.96720    0.46720    0.46720   1.00
O2       0.97650    0.52350    0.58820   1.00
O2       0.97650    0.58820    0.52350   1.00
O2       0.91180    0.52350    0.52350   1.00
O2       1.02350    0.47650    0.58820   1.00
O2       1.08820    0.47650    0.52350   1.00
O2       1.02350    0.41180    0.52350   1.00
O2       1.02350    0.58820    0.47650   1.00
O2       1.08820    0.52350    0.47650   1.00
O2       1.02350    0.52350    0.41180   1.00
O2       0.91180    0.47650    0.47650   1.00
O2       0.97650    0.41180    0.47650   1.00
O2       0.97650    0.47650    0.41180   1.00
C1       1.00000    0.50000    0.60520   1.00
C1       1.00000    0.60520    0.50000   1.00
C1       0.89480    0.50000    0.50000   1.00
C1       1.10520    0.50000    0.50000   1.00
C1       1.00000    0.39480    0.50000   1.00
C1       1.00000    0.50000    0.39480   1.00
O1       0.50000    0.50000    0.50000   1.00
Zn1      0.53280    0.46720    0.46720   1.00
Zn1      0.46720    0.53280    0.46720   1.00
Zn1      0.46720    0.46720    0.53280   1.00
Zn1      0.53280    0.53280    0.53280   1.00
O2       0.52350    0.47650    0.41180   1.00
O2       0.52350    0.41180    0.47650   1.00
O2       0.58820    0.47650    0.47650   1.00
O2       0.47650    0.52350    0.41180   1.00
O2       0.41180    0.52350    0.47650   1.00
O2       0.47650    0.58820    0.47650   1.00
O2       0.47650    0.41180    0.52350   1.00
O2       0.41180    0.47650    0.52350   1.00
O2       0.47650    0.47650    0.58820   1.00
O2       0.58820    0.52350    0.52350   1.00
O2       0.52350    0.58820    0.52350   1.00
O2       0.52350    0.52350    0.58820   1.00
C1       0.50000    0.50000    0.39480   1.00
C1       0.50000    0.39480    0.50000   1.00
C1       0.60520    0.50000    0.50000   1.00
C1       0.39480    0.50000    0.50000   1.00
C1       0.50000    0.60520    0.50000   1.00
C1       0.50000    0.50000    0.60520   1.00
O1       1.00000    1.00000    0.50000   1.00
Zn1      1.03280    0.96720    0.46720   1.00
Zn1      0.96720    1.03280    0.46720   1.00
Zn1      0.96720    0.96720    0.53280   1.00
Zn1      1.03280    1.03280    0.53280   1.00
O2       1.02350    0.97650    0.41180   1.00
O2       1.02350    0.91180    0.47650   1.00
O2       1.08820    0.97650    0.47650   1.00
O2       0.97650    1.02350    0.41180   1.00
O2       0.91180    1.02350    0.47650   1.00
O2       0.97650    1.08820    0.47650   1.00
O2       0.97650    0.91180    0.52350   1.00
O2       0.91180    0.97650    0.52350   1.00
O2       0.97650    0.97650    0.58820   1.00
O2       1.08820    1.02350    0.52350   1.00
O2       1.02350    1.08820    0.52350   1.00
O2       1.02350    1.02350    0.58820   1.00
C1       1.00000    1.00000    0.39480   1.00
C1       1.00000    0.89480    0.50000   1.00
C1       1.10520    1.00000    0.50000   1.00
C1       0.89480    1.00000    0.50000   1.00
C1       1.00000    1.10520    0.50000   1.00
C1       1.00000    1.00000    0.60520   1.00
O1       1.00000    0.50000    1.00000   1.00
Zn1      1.03280    0.46720    0.96720   1.00
Zn1      0.96720    0.53280    0.96720   1.00
Zn1      0.96720    0.46720    1.03280   1.00
Zn1      1.03280    0.53280    1.03280   1.00
O2       1.02350    0.47650    0.91180   1.00
O2       1.02350    0.41180    0.97650   1.00
O2       1.08820    0.47650    0.97650   1.00
O2       0.97650    0.52350    0.91180   1.00
O2       0.91180    0.52350    0.97650   1.00
O2       0.97650    0.58820    0.97650   1.00
O2       0.97650    0.41180    1.02350   1.00
O2       0.91180    0.47650    1.02350   1.00
O2       0.97650    0.47650    1.08820   1.00
O2       1.08820    0.52350    1.02350   1.00
O2       1.02350    0.58820    1.02350   1.00
O2       1.02350    0.52350    1.08820   1.00
C1       1.00000    0.50000    0.89480   1.00
C1       1.00000    0.39480    1.00000   1.00
C1       1.10520    0.50000    1.00000   1.00
C1       0.89480    0.50000    1.00000   1.00
C1       1.00000    0.60520    1.00000   1.00
C1       1.00000    0.50000    1.10520   1.00
O1       0.50000    1.00000    1.00000   1.00
Zn1      0.53280    0.96720    0.96720   1.00
Zn1      0.46720    1.03280    0.96720   1.00
Zn1      0.46720    0.96720    1.03280   1.00
Zn1      0.53280    1.03280    1.03280   1.00
O2       0.52350    0.97650    0.91180   1.00
O2       0.52350    0.91180    0.97650   1.00
O2       0.58820    0.97650    0.97650   1.00
O2       0.47650    1.02350    0.91180   1.00
O2       0.41180    1.02350    0.97650   1.00
O2       0.47650    1.08820    0.97650   1.00
O2       0.47650    0.91180    1.02350   1.00
O2       0.41180    0.97650    1.02350   1.00
O2       0.47650    0.97650    1.08820   1.00
O2       0.58820    1.02350    1.02350   1.00
O2       0.52350    1.08820    1.02350   1.00
O2       0.52350    1.02350    1.08820   1.00
C1       0.50000    1.00000    0.89480   1.00
C1       0.50000    0.89480    1.00000   1.00
C1       0.60520    1.00000    1.00000   1.00
C1       0.39480    1.00000    1.00000   1.00
C1       0.50000    1.10520    1.00000   1.00
C1       0.50000    1.00000    1.10520   1.00
C2       0.74855    0.75262    0.89757   1.00
C3a      0.74924    0.78753    0.91884   1.00
H1       0.74932    0.81530    0.90369   1.00
C3a      0.74844    0.71667    0.91704   1.00
H1       0.74791    0.68970    0.90051   1.00
C3b      0.74982    0.78688    0.95938   1.00
C5       0.75055    0.82496    0.98144   1.00
H2       0.77712    0.82660    0.99984   1.00
H2       0.75054    0.85057    0.96161   1.00
H2       0.72456    0.82717    1.00060   1.00
C3b      0.74901    0.71524    0.95756   1.00
C5       0.74887    0.67609    0.97767   1.00
H2       0.72283    0.67349    0.99670   1.00
H2       0.74830    0.65152    0.95655   1.00
H2       0.77539    0.67292    0.99594   1.00
C4       0.74970    0.75054    0.97873   1.00
C4       0.75030    0.74946    1.02127   1.00
C3b      0.78642    0.74855    1.04101   1.00
C5       0.82474    0.74867    1.01937   1.00
H2       0.82718    0.77540    1.00129   1.00
H2       0.85012    0.74787    1.03949   1.00
H2       0.82659    0.72284    0.99995   1.00
C3b      0.71476    0.74933    1.04204   1.00
C5       0.67584    0.75029    1.02152   1.00
H2       0.67287    0.72452    1.00217   1.00
H2       0.65103    0.75004    1.04235   1.00
H2       0.67346    0.77707    1.00350   1.00
C3a      0.78660    0.74752    1.08155   1.00
H1       0.81420    0.74682    1.09700   1.00
C3a      0.71572    0.74829    1.08257   1.00
H1       0.68857    0.74818    1.09881   1.00
C2       0.75145    0.74738    1.10243   1.00
C2       0.75262    0.89757    0.74855   1.00
C3a      0.78753    0.91884    0.74924   1.00
H1       0.81530    0.90369    0.74932   1.00
C3a      0.71667    0.91704    0.74844   1.00
H1       0.68970    0.90051    0.74791   1.00
C3b      0.78688    0.95938    0.74982   1.00
C5       0.82496    0.98144    0.75055   1.00
H2       0.82660    0.99984    0.77712   1.00
H2       0.85057    0.96161    0.75054   1.00
H2       0.82717    1.00060    0.72456   1.00
C3b      0.71524    0.95756    0.74901   1.00
C5       0.67609    0.97767    0.74887   1.00
H2       0.67349    0.99670    0.72283   1.00
H2       0.65152    0.95655    0.74830   1.00
H2       0.67292    0.99594    0.77539   1.00
C4       0.75054    0.97873    0.74970   1.00
C4       0.74946    1.02127    0.75030   1.00
C3b      0.74855    1.04101    0.78642   1.00
C5       0.74867    1.01937    0.82474   1.00
H2       0.77540    1.00129    0.82718   1.00
H2       0.74787    1.03949    0.85012   1.00
H2       0.72284    0.99995    0.82659   1.00
C3b      0.74933    1.04204    0.71476   1.00
C5       0.75029    1.02152    0.67584   1.00
H2       0.72452    1.00217    0.67287   1.00
H2       0.75004    1.04235    0.65103   1.00
H2       0.77707    1.00350    0.67346   1.00
C3a      0.74752    1.08155    0.78660   1.00
H1       0.74682    1.09700    0.81420   1.00
C3a      0.74829    1.08257    0.71572   1.00
H1       0.74818    1.09881    0.68857   1.00
C2       0.74738    1.10243    0.75145   1.00
C2       0.60243    0.74855    0.74738   1.00
C3a      0.58116    0.74924    0.71247   1.00
H1       0.59631    0.74932    0.68470   1.00
C3a      0.58296    0.74844    0.78333   1.00
H1       0.59949    0.74791    0.81030   1.00
C3b      0.54062    0.74982    0.71312   1.00
C5       0.51856    0.75055    0.67504   1.00
H2       0.50016    0.77712    0.67340   1.00
H2       0.53839    0.75054    0.64943   1.00
H2       0.49940    0.72456    0.67283   1.00
C3b      0.54244    0.74901    0.78476   1.00
C5       0.52233    0.74887    0.82391   1.00
H2       0.50330    0.72283    0.82651   1.00
H2       0.54345    0.74830    0.84848   1.00
H2       0.50406    0.77539    0.82708   1.00
C4       0.52127    0.74970    0.74946   1.00
C4       0.47873    0.75030    0.75054   1.00
C3b      0.45899    0.78642    0.75145   1.00
C5       0.48063    0.82474    0.75133   1.00
H2       0.49871    0.82718    0.72460   1.00
H2       0.46051    0.85012    0.75213   1.00
H2       0.50005    0.82659    0.77716   1.00
C3b      0.45796    0.71476    0.75067   1.00
C5       0.47848    0.67584    0.74971   1.00
H2       0.49783    0.67287    0.77548   1.00
H2       0.45765    0.65103    0.74996   1.00
H2       0.49650    0.67346    0.72293   1.00
C3a      0.41845    0.78660    0.75248   1.00
H1       0.40300    0.81420    0.75318   1.00
C3a      0.41743    0.71572    0.75171   1.00
H1       0.40119    0.68857    0.75182   1.00
C2       0.39757    0.75145    0.75262   1.00
C2       0.89757    0.74855    0.75262   1.00
C3a      0.91884    0.74924    0.78753   1.00
H1       0.90369    0.74932    0.81530   1.00
C3a      0.91704    0.74844    0.71667   1.00
H1       0.90051    0.74791    0.68970   1.00
C3b      0.95938    0.74982    0.78688   1.00
C5       0.98144    0.75055    0.82496   1.00
H2       0.99984    0.77712    0.82660   1.00
H2       0.96161    0.75054    0.85057   1.00
H2       1.00060    0.72456    0.82717   1.00
C3b      0.95756    0.74901    0.71524   1.00
C5       0.97767    0.74887    0.67609   1.00
H2       0.99670    0.72283    0.67349   1.00
H2       0.95655    0.74830    0.65152   1.00
H2       0.99594    0.77539    0.67292   1.00
C4       0.97873    0.74970    0.75054   1.00
C4       1.02127    0.75030    0.74946   1.00
C3b      1.04101    0.78642    0.74855   1.00
C5       1.01937    0.82474    0.74867   1.00
H2       1.00129    0.82718    0.77540   1.00
H2       1.03949    0.85012    0.74787   1.00
H2       0.99995    0.82659    0.72284   1.00
C3b      1.04204    0.71476    0.74933   1.00
C5       1.02152    0.67584    0.75029   1.00
H2       1.00217    0.67287    0.72452   1.00
H2       1.04235    0.65103    0.75004   1.00
H2       1.00350    0.67346    0.77707   1.00
C3a      1.08155    0.78660    0.74752   1.00
H1       1.09700    0.81420    0.74682   1.00
C3a      1.08257    0.71572    0.74829   1.00
H1       1.09881    0.68857    0.74818   1.00
C2       1.10243    0.75145    0.74738   1.00
C2       0.74738    0.60243    0.74855   1.00
C3a      0.71247    0.58116    0.74924   1.00
H1       0.68470    0.59631    0.74932   1.00
C3a      0.78333    0.58296    0.74844   1.00
H1       0.81030    0.59949    0.74791   1.00
C3b      0.71312    0.54062    0.74982   1.00
C5       0.67504    0.51856    0.75055   1.00
H2       0.67340    0.50016    0.77712   1.00
H2       0.64943    0.53839    0.75054   1.00
H2       0.67283    0.49940    0.72456   1.00
C3b      0.78476    0.54244    0.74901   1.00
C5       0.82391    0.52233    0.74887   1.00
H2       0.82651    0.50330    0.72283   1.00
H2       0.84848    0.54345    0.74830   1.00
H2       0.82708    0.50406    0.77539   1.00
C4       0.74946    0.52127    0.74970   1.00
C4       0.75054    0.47873    0.75030   1.00
C3b      0.75145    0.45899    0.78642   1.00
C5       0.75133    0.48063    0.82474   1.00
H2       0.72460    0.49871    0.82718   1.00
H2       0.75213    0.46051    0.85012   1.00
H2       0.77716    0.50005    0.82659   1.00
C3b      0.75067    0.45796    0.71476   1.00
C5       0.74971    0.47848    0.67584   1.00
H2       0.77548    0.49783    0.67287   1.00
H2       0.74996    0.45765    0.65103   1.00
H2       0.72293    0.49650    0.67346   1.00
C3a      0.75248    0.41845    0.78660   1.00
H1       0.75318    0.40300    0.81420   1.00
C3a      0.75171    0.41743    0.71572   1.00
H1       0.75182    0.40119    0.68857   1.00
C2       0.75262    0.39757    0.75145   1.00
C2       0.74855    0.74738    0.60243   1.00
C3a      0.74924    0.71247    0.58116   1.00
H1       0.74932    0.68470    0.59631   1.00
C3a      0.74844    0.78333    0.58296   1.00
H1       0.74791    0.81030    0.59949   1.00
C3b      0.74982    0.71312    0.54062   1.00
C5       0.75055    0.67504    0.51856   1.00
H2       0.77712    0.67340    0.50016   1.00
H2       0.75054    0.64943    0.53839   1.00
H2       0.72456    0.67283    0.49940   1.00
C3b      0.74901    0.78476    0.54244   1.00
C5       0.74887    0.82391    0.52233   1.00
H2       0.72283    0.82651    0.50330   1.00
H2       0.74830    0.84848    0.54345   1.00
H2       0.77539    0.82708    0.50406   1.00
C4       0.74970    0.74946    0.52127   1.00
C4       0.75030    0.75054    0.47873   1.00
C3b      0.78642    0.75145    0.45899   1.00
C5       0.82474    0.75133    0.48063   1.00
H2       0.82718    0.72460    0.49871   1.00
H2       0.85012    0.75213    0.46051   1.00
H2       0.82659    0.77716    0.50005   1.00
C3b      0.71476    0.75067    0.45796   1.00
C5       0.67584    0.74971    0.47848   1.00
H2       0.67287    0.77548    0.49783   1.00
H2       0.65103    0.74996    0.45765   1.00
H2       0.67346    0.72293    0.49650   1.00
C3a      0.78660    0.75248    0.41845   1.00
H1       0.81420    0.75318    0.40300   1.00
C3a      0.71572    0.75171    0.41743   1.00
H1       0.68857    0.75182    0.40119   1.00
C2       0.75145    0.75262    0.39757   1.00
C2       0.24855    0.25262    0.89757   1.00
C3a      0.24924    0.28753    0.91884   1.00
H1       0.24932    0.31530    0.90369   1.00
C3a      0.24844    0.21667    0.91704   1.00
H1       0.24791    0.18970    0.90051   1.00
C3b      0.24982    0.28688    0.95938   1.00
C5       0.25055    0.32496    0.98144   1.00
H2       0.27712    0.32660    0.99984   1.00
H2       0.25054    0.35057    0.96161   1.00
H2       0.22456    0.32717    1.00060   1.00
C3b      0.24901    0.21524    0.95756   1.00
C5       0.24887    0.17609    0.97767   1.00
H2       0.22283    0.17349    0.99670   1.00
H2       0.24830    0.15152    0.95655   1.00
H2       0.27539    0.17292    0.99594   1.00
C4       0.24970    0.25054    0.97873   1.00
C4       0.25030    0.24946    1.02127   1.00
C3b      0.28642    0.24855    1.04101   1.00
C5       0.32474    0.24867    1.01937   1.00
H2       0.32718    0.27540    1.00129   1.00
H2       0.35012    0.24787    1.03949   1.00
H2       0.32659    0.22284    0.99995   1.00
C3b      0.21476    0.24933    1.04204   1.00
C5       0.17584    0.25029    1.02152   1.00
H2       0.17287    0.22452    1.00217   1.00
H2       0.15103    0.25004    1.04235   1.00
H2       0.17346    0.27707    1.00350   1.00
C3a      0.28660    0.24752    1.08155   1.00
H1       0.31420    0.24682    1.09700   1.00
C3a      0.21572    0.24829    1.08257   1.00
H1       0.18857    0.24818    1.09881   1.00
C2       0.25145    0.24738    1.10243   1.00
C2       0.25262    0.39757    0.74855   1.00
C3a      0.28753    0.41884    0.74924   1.00
H1       0.31530    0.40369    0.74932   1.00
C3a      0.21667    0.41704    0.74844   1.00
H1       0.18970    0.40051    0.74791   1.00
C3b      0.28688    0.45938    0.74982   1.00
C5       0.32496    0.48144    0.75055   1.00
H2       0.32660    0.49984    0.77712   1.00
H2       0.35057    0.46161    0.75054   1.00
H2       0.32717    0.50060    0.72456   1.00
C3b      0.21524    0.45756    0.74901   1.00
C5       0.17609    0.47767    0.74887   1.00
H2       0.17349    0.49670    0.72283   1.00
H2       0.15152    0.45655    0.74830   1.00
H2       0.17292    0.49594    0.77539   1.00
C4       0.25054    0.47873    0.74970   1.00
C4       0.24946    0.52127    0.75030   1.00
C3b      0.24855    0.54101    0.78642   1.00
C5       0.24867    0.51937    0.82474   1.00
H2       0.27540    0.50129    0.82718   1.00
H2       0.24787    0.53949    0.85012   1.00
H2       0.22284    0.49995    0.82659   1.00
C3b      0.24933    0.54204    0.71476   1.00
C5       0.25029    0.52152    0.67584   1.00
H2       0.22452    0.50217    0.67287   1.00
H2       0.25004    0.54235    0.65103   1.00
H2       0.27707    0.50350    0.67346   1.00
C3a      0.24752    0.58155    0.78660   1.00
H1       0.24682    0.59700    0.81420   1.00
C3a      0.24829    0.58257    0.71572   1.00
H1       0.24818    0.59881    0.68857   1.00
C2       0.24738    0.60243    0.75145   1.00
C2       0.10243    0.24855    0.74738   1.00
C3a      0.08116    0.24924    0.71247   1.00
H1       0.09631    0.24932    0.68470   1.00
C3a      0.08296    0.24844    0.78333   1.00
H1       0.09949    0.24791    0.81030   1.00
C3b      0.04062    0.24982    0.71312   1.00
C5       0.01856    0.25055    0.67504   1.00
H2       0.00016    0.27712    0.67340   1.00
H2       0.03839    0.25054    0.64943   1.00
H2       -0.00060   0.22456    0.67283   1.00
C3b      0.04244    0.24901    0.78476   1.00
C5       0.02233    0.24887    0.82391   1.00
H2       0.00330    0.22283    0.82651   1.00
H2       0.04345    0.24830    0.84848   1.00
H2       0.00406    0.27539    0.82708   1.00
C4       0.02127    0.24970    0.74946   1.00
C4       -0.02127   0.25030    0.75054   1.00
C3b      -0.04101   0.28642    0.75145   1.00
C5       -0.01937   0.32474    0.75133   1.00
H2       -0.00129   0.32718    0.72460   1.00
H2       -0.03949   0.35012    0.75213   1.00
H2       0.00005    0.32659    0.77716   1.00
C3b      -0.04204   0.21476    0.75067   1.00
C5       -0.02152   0.17584    0.74971   1.00
H2       -0.00217   0.17287    0.77548   1.00
H2       -0.04235   0.15103    0.74996   1.00
H2       -0.00350   0.17346    0.72293   1.00
C3a      -0.08155   0.28660    0.75248   1.00
H1       -0.09700   0.31420    0.75318   1.00
C3a      -0.08257   0.21572    0.75171   1.00
H1       -0.09881   0.18857    0.75182   1.00
C2       -0.10243   0.25145    0.75262   1.00
C2       0.39757    0.24855    0.75262   1.00
C3a      0.41884    0.24924    0.78753   1.00
H1       0.40369    0.24932    0.81530   1.00
C3a      0.41704    0.24844    0.71667   1.00
H1       0.40051    0.24791    0.68970   1.00
C3b      0.45938    0.24982    0.78688   1.00
C5       0.48144    0.25055    0.82496   1.00
H2       0.49984    0.27712    0.82660   1.00
H2       0.46161    0.25054    0.85057   1.00
H2       0.50060    0.22456    0.82717   1.00
C3b      0.45756    0.24901    0.71524   1.00
C5       0.47767    0.24887    0.67609   1.00
H2       0.49670    0.22283    0.67349   1.00
H2       0.45655    0.24830    0.65152   1.00
H2       0.49594    0.27539    0.67292   1.00
C4       0.47873    0.24970    0.75054   1.00
C4       0.52127    0.25030    0.74946   1.00
C3b      0.54101    0.28642    0.74855   1.00
C5       0.51937    0.32474    0.74867   1.00
H2       0.50129    0.32718    0.77540   1.00
H2       0.53949    0.35012    0.74787   1.00
H2       0.49995    0.32659    0.72284   1.00
C3b      0.54204    0.21476    0.74933   1.00
C5       0.52152    0.17584    0.75029   1.00
H2       0.50217    0.17287    0.72452   1.00
H2       0.54235    0.15103    0.75004   1.00
H2       0.50350    0.17346    0.77707   1.00
C3a      0.58155    0.28660    0.74752   1.00
H1       0.59700    0.31420    0.74682   1.00
C3a      0.58257    0.21572    0.74829   1.00
H1       0.59881    0.18857    0.74818   1.00
C2       0.60243    0.25145    0.74738   1.00
C2       0.24738    0.10243    0.74855   1.00
C3a      0.21247    0.08116    0.74924   1.00
H1       0.18470    0.09631    0.74932   1.00
C3a      0.28333    0.08296    0.74844   1.00
H1       0.31030    0.09949    0.74791   1.00
C3b      0.21312    0.04062    0.74982   1.00
C5       0.17504    0.01856    0.75055   1.00
H2       0.17340    0.00016    0.77712   1.00
H2       0.14943    0.03839    0.75054   1.00
H2       0.17283    -0.00060   0.72456   1.00
C3b      0.28476    0.04244    0.74901   1.00
C5       0.32391    0.02233    0.74887   1.00
H2       0.32651    0.00330    0.72283   1.00
H2       0.34848    0.04345    0.74830   1.00
H2       0.32708    0.00406    0.77539   1.00
C4       0.24946    0.02127    0.74970   1.00
C4       0.25054    -0.02127   0.75030   1.00
C3b      0.25145    -0.04101   0.78642   1.00
C5       0.25133    -0.01937   0.82474   1.00
H2       0.22460    -0.00129   0.82718   1.00
H2       0.25213    -0.03949   0.85012   1.00
H2       0.27716    0.00005    0.82659   1.00
C3b      0.25067    -0.04204   0.71476   1.00
C5       0.24971    -0.02152   0.67584   1.00
H2       0.27548    -0.00217   0.67287   1.00
H2       0.24996    -0.04235   0.65103   1.00
H2       0.22293    -0.00350   0.67346   1.00
C3a      0.25248    -0.08155   0.78660   1.00
H1       0.25318    -0.09700   0.81420   1.00
C3a      0.25171    -0.08257   0.71572   1.00
H1       0.25182    -0.09881   0.68857   1.00
C2       0.25262    -0.10243   0.75145   1.00
C2       0.24855    0.24738    0.60243   1.00
C3a      0.24924    0.21247    0.58116   1.00
H1       0.24932    0.18470    0.59631   1.00
C3a      0.24844    0.28333    0.58296   1.00
H1       0.24791    0.31030    0.59949   1.00
C3b      0.24982    0.21312    0.54062   1.00
C5       0.25055    0.17504    0.51856   1.00
H2       0.27712    0.17340    0.50016   1.00
H2       0.25054    0.14943    0.53839   1.00
H2       0.22456    0.17283    0.49940   1.00
C3b      0.24901    0.28476    0.54244   1.00
C5       0.24887    0.32391    0.52233   1.00
H2       0.22283    0.32651    0.50330   1.00
H2       0.24830    0.34848    0.54345   1.00
H2       0.27539    0.32708    0.50406   1.00
C4       0.24970    0.24946    0.52127   1.00
C4       0.25030    0.25054    0.47873   1.00
C3b      0.28642    0.25145    0.45899   1.00
C5       0.32474    0.25133    0.48063   1.00
H2       0.32718    0.22460    0.49871   1.00
H2       0.35012    0.25213    0.46051   1.00
H2       0.32659    0.27716    0.50005   1.00
C3b      0.21476    0.25067    0.45796   1.00
C5       0.17584    0.24971    0.47848   1.00
H2       0.17287    0.27548    0.49783   1.00
H2       0.15103    0.24996    0.45765   1.00
H2       0.17346    0.22293    0.49650   1.00
C3a      0.28660    0.25248    0.41845   1.00
H1       0.31420    0.25318    0.40300   1.00
C3a      0.21572    0.25171    0.41743   1.00
H1       0.18857    0.25182    0.40119   1.00
C2       0.25145    0.25262    0.39757   1.00
C2       0.24855    0.75262    0.39757   1.00
C3a      0.24924    0.78753    0.41884   1.00
H1       0.24932    0.81530    0.40369   1.00
C3a      0.24844    0.71667    0.41704   1.00
H1       0.24791    0.68970    0.40051   1.00
C3b      0.24982    0.78688    0.45938   1.00
C5       0.25055    0.82496    0.48144   1.00
H2       0.27712    0.82660    0.49984   1.00
H2       0.25054    0.85057    0.46161   1.00
H2       0.22456    0.82717    0.50060   1.00
C3b      0.24901    0.71524    0.45756   1.00
C5       0.24887    0.67609    0.47767   1.00
H2       0.22283    0.67349    0.49670   1.00
H2       0.24830    0.65152    0.45655   1.00
H2       0.27539    0.67292    0.49594   1.00
C4       0.24970    0.75054    0.47873   1.00
C4       0.25030    0.74946    0.52127   1.00
C3b      0.28642    0.74855    0.54101   1.00
C5       0.32474    0.74867    0.51937   1.00
H2       0.32718    0.77540    0.50129   1.00
H2       0.35012    0.74787    0.53949   1.00
H2       0.32659    0.72284    0.49995   1.00
C3b      0.21476    0.74933    0.54204   1.00
C5       0.17584    0.75029    0.52152   1.00
H2       0.17287    0.72452    0.50217   1.00
H2       0.15103    0.75004    0.54235   1.00
H2       0.17346    0.77707    0.50350   1.00
C3a      0.28660    0.74752    0.58155   1.00
H1       0.31420    0.74682    0.59700   1.00
C3a      0.21572    0.74829    0.58257   1.00
H1       0.18857    0.74818    0.59881   1.00
C2       0.25145    0.74738    0.60243   1.00
C2       0.25262    0.89757    0.24855   1.00
C3a      0.28753    0.91884    0.24924   1.00
H1       0.31530    0.90369    0.24932   1.00
C3a      0.21667    0.91704    0.24844   1.00
H1       0.18970    0.90051    0.24791   1.00
C3b      0.28688    0.95938    0.24982   1.00
C5       0.32496    0.98144    0.25055   1.00
H2       0.32660    0.99984    0.27712   1.00
H2       0.35057    0.96161    0.25054   1.00
H2       0.32717    1.00060    0.22456   1.00
C3b      0.21524    0.95756    0.24901   1.00
C5       0.17609    0.97767    0.24887   1.00
H2       0.17349    0.99670    0.22283   1.00
H2       0.15152    0.95655    0.24830   1.00
H2       0.17292    0.99594    0.27539   1.00
C4       0.25054    0.97873    0.24970   1.00
C4       0.24946    1.02127    0.25030   1.00
C3b      0.24855    1.04101    0.28642   1.00
C5       0.24867    1.01937    0.32474   1.00
H2       0.27540    1.00129    0.32718   1.00
H2       0.24787    1.03949    0.35012   1.00
H2       0.22284    0.99995    0.32659   1.00
C3b      0.24933    1.04204    0.21476   1.00
C5       0.25029    1.02152    0.17584   1.00
H2       0.22452    1.00217    0.17287   1.00
H2       0.25004    1.04235    0.15103   1.00
H2       0.27707    1.00350    0.17346   1.00
C3a      0.24752    1.08155    0.28660   1.00
H1       0.24682    1.09700    0.31420   1.00
C3a      0.24829    1.08257    0.21572   1.00
H1       0.24818    1.09881    0.18857   1.00
C2       0.24738    1.10243    0.25145   1.00
C2       0.10243    0.74855    0.24738   1.00
C3a      0.08116    0.74924    0.21247   1.00
H1       0.09631    0.74932    0.18470   1.00
C3a      0.08296    0.74844    0.28333   1.00
H1       0.09949    0.74791    0.31030   1.00
C3b      0.04062    0.74982    0.21312   1.00
C5       0.01856    0.75055    0.17504   1.00
H2       0.00016    0.77712    0.17340   1.00
H2       0.03839    0.75054    0.14943   1.00
H2       -0.00060   0.72456    0.17283   1.00
C3b      0.04244    0.74901    0.28476   1.00
C5       0.02233    0.74887    0.32391   1.00
H2       0.00330    0.72283    0.32651   1.00
H2       0.04345    0.74830    0.34848   1.00
H2       0.00406    0.77539    0.32708   1.00
C4       0.02127    0.74970    0.24946   1.00
C4       -0.02127   0.75030    0.25054   1.00
C3b      -0.04101   0.78642    0.25145   1.00
C5       -0.01937   0.82474    0.25133   1.00
H2       -0.00129   0.82718    0.22460   1.00
H2       -0.03949   0.85012    0.25213   1.00
H2       0.00005    0.82659    0.27716   1.00
C3b      -0.04204   0.71476    0.25067   1.00
C5       -0.02152   0.67584    0.24971   1.00
H2       -0.00217   0.67287    0.27548   1.00
H2       -0.04235   0.65103    0.24996   1.00
H2       -0.00350   0.67346    0.22293   1.00
C3a      -0.08155   0.78660    0.25248   1.00
H1       -0.09700   0.81420    0.25318   1.00
C3a      -0.08257   0.71572    0.25171   1.00
H1       -0.09881   0.68857    0.25182   1.00
C2       -0.10243   0.75145    0.25262   1.00
C2       0.39757    0.74855    0.25262   1.00
C3a      0.41884    0.74924    0.28753   1.00
H1       0.40369    0.74932    0.31530   1.00
C3a      0.41704    0.74844    0.21667   1.00
H1       0.40051    0.74791    0.18970   1.00
C3b      0.45938    0.74982    0.28688   1.00
C5       0.48144    0.75055    0.32496   1.00
H2       0.49984    0.77712    0.32660   1.00
H2       0.46161    0.75054    0.35057   1.00
H2       0.50060    0.72456    0.32717   1.00
C3b      0.45756    0.74901    0.21524   1.00
C5       0.47767    0.74887    0.17609   1.00
H2       0.49670    0.72283    0.17349   1.00
H2       0.45655    0.74830    0.15152   1.00
H2       0.49594    0.77539    0.17292   1.00
C4       0.47873    0.74970    0.25054   1.00
C4       0.52127    0.75030    0.24946   1.00
C3b      0.54101    0.78642    0.24855   1.00
C5       0.51937    0.82474    0.24867   1.00
H2       0.50129    0.82718    0.27540   1.00
H2       0.53949    0.85012    0.24787   1.00
H2       0.49995    0.82659    0.22284   1.00
C3b      0.54204    0.71476    0.24933   1.00
C5       0.52152    0.67584    0.25029   1.00
H2       0.50217    0.67287    0.22452   1.00
H2       0.54235    0.65103    0.25004   1.00
H2       0.50350    0.67346    0.27707   1.00
C3a      0.58155    0.78660    0.24752   1.00
H1       0.59700    0.81420    0.24682   1.00
C3a      0.58257    0.71572    0.24829   1.00
H1       0.59881    0.68857    0.24818   1.00
C2       0.60243    0.75145    0.24738   1.00
C2       0.24738    0.60243    0.24855   1.00
C3a      0.21247    0.58116    0.24924   1.00
H1       0.18470    0.59631    0.24932   1.00
C3a      0.28333    0.58296    0.24844   1.00
H1       0.31030    0.59949    0.24791   1.00
C3b      0.21312    0.54062    0.24982   1.00
C5       0.17504    0.51856    0.25055   1.00
H2       0.17340    0.50016    0.27712   1.00
H2       0.14943    0.53839    0.25054   1.00
H2       0.17283    0.49940    0.22456   1.00
C3b      0.28476    0.54244    0.24901   1.00
C5       0.32391    0.52233    0.24887   1.00
H2       0.32651    0.50330    0.22283   1.00
H2       0.34848    0.54345    0.24830   1.00
H2       0.32708    0.50406    0.27539   1.00
C4       0.24946    0.52127    0.24970   1.00
C4       0.25054    0.47873    0.25030   1.00
C3b      0.25145    0.45899    0.28642   1.00
C5       0.25133    0.48063    0.32474   1.00
H2       0.22460    0.49871    0.32718   1.00
H2       0.25213    0.46051    0.35012   1.00
H2       0.27716    0.50005    0.32659   1.00
C3b      0.25067    0.45796    0.21476   1.00
C5       0.24971    0.47848    0.17584   1.00
H2       0.27548    0.49783    0.17287   1.00
H2       0.24996    0.45765    0.15103   1.00
H2       0.22293    0.49650    0.17346   1.00
C3a      0.25248    0.41845    0.28660   1.00
H1       0.25318    0.40300    0.31420   1.00
C3a      0.25171    0.41743    0.21572   1.00
H1       0.25182    0.40119    0.18857   1.00
C2       0.25262    0.39757    0.25145   1.00
C2       0.24855    0.74738    0.10243   1.00
C3a      0.24924    0.71247    0.08116   1.00
H1       0.24932    0.68470    0.09631   1.00
C3a      0.24844    0.78333    0.08296   1.00
H1       0.24791    0.81030    0.09949   1.00
C3b      0.24982    0.71312    0.04062   1.00
C5       0.25055    0.67504    0.01856   1.00
H2       0.27712    0.67340    0.00016   1.00
H2       0.25054    0.64943    0.03839   1.00
H2       0.22456    0.67283    -0.00060   1.00
C3b      0.24901    0.78476    0.04244   1.00
C5       0.24887    0.82391    0.02233   1.00
H2       0.22283    0.82651    0.00330   1.00
H2       0.24830    0.84848    0.04345   1.00
H2       0.27539    0.82708    0.00406   1.00
C4       0.24970    0.74946    0.02127   1.00
C4       0.25030    0.75054    -0.02127   1.00
C3b      0.28642    0.75145    -0.04101   1.00
C5       0.32474    0.75133    -0.01937   1.00
H2       0.32718    0.72460    -0.00129   1.00
H2       0.35012    0.75213    -0.03949   1.00
H2       0.32659    0.77716    0.00005   1.00
C3b      0.21476    0.75067    -0.04204   1.00
C5       0.17584    0.74971    -0.02152   1.00
H2       0.17287    0.77548    -0.00217   1.00
H2       0.15103    0.74996    -0.04235   1.00
H2       0.17346    0.72293    -0.00350   1.00
C3a      0.28660    0.75248    -0.08155   1.00
H1       0.31420    0.75318    -0.09700   1.00
C3a      0.21572    0.75171    -0.08257   1.00
H1       0.18857    0.75182    -0.09881   1.00
C2       0.25145    0.75262    -0.10243   1.00
C2       0.74855    0.25262    0.39757   1.00
C3a      0.74924    0.28753    0.41884   1.00
H1       0.74932    0.31530    0.40369   1.00
C3a      0.74844    0.21667    0.41704   1.00
H1       0.74791    0.18970    0.40051   1.00
C3b      0.74982    0.28688    0.45938   1.00
C5       0.75055    0.32496    0.48144   1.00
H2       0.77712    0.32660    0.49984   1.00
H2       0.75054    0.35057    0.46161   1.00
H2       0.72456    0.32717    0.50060   1.00
C3b      0.74901    0.21524    0.45756   1.00
C5       0.74887    0.17609    0.47767   1.00
H2       0.72283    0.17349    0.49670   1.00
H2       0.74830    0.15152    0.45655   1.00
H2       0.77539    0.17292    0.49594   1.00
C4       0.74970    0.25054    0.47873   1.00
C4       0.75030    0.24946    0.52127   1.00
C3b      0.78642    0.24855    0.54101   1.00
C5       0.82474    0.24867    0.51937   1.00
H2       0.82718    0.27540    0.50129   1.00
H2       0.85012    0.24787    0.53949   1.00
H2       0.82659    0.22284    0.49995   1.00
C3b      0.71476    0.24933    0.54204   1.00
C5       0.67584    0.25029    0.52152   1.00
H2       0.67287    0.22452    0.50217   1.00
H2       0.65103    0.25004    0.54235   1.00
H2       0.67346    0.27707    0.50350   1.00
C3a      0.78660    0.24752    0.58155   1.00
H1       0.81420    0.24682    0.59700   1.00
C3a      0.71572    0.24829    0.58257   1.00
H1       0.68857    0.24818    0.59881   1.00
C2       0.75145    0.24738    0.60243   1.00
C2       0.75262    0.39757    0.24855   1.00
C3a      0.78753    0.41884    0.24924   1.00
H1       0.81530    0.40369    0.24932   1.00
C3a      0.71667    0.41704    0.24844   1.00
H1       0.68970    0.40051    0.24791   1.00
C3b      0.78688    0.45938    0.24982   1.00
C5       0.82496    0.48144    0.25055   1.00
H2       0.82660    0.49984    0.27712   1.00
H2       0.85057    0.46161    0.25054   1.00
H2       0.82717    0.50060    0.22456   1.00
C3b      0.71524    0.45756    0.24901   1.00
C5       0.67609    0.47767    0.24887   1.00
H2       0.67349    0.49670    0.22283   1.00
H2       0.65152    0.45655    0.24830   1.00
H2       0.67292    0.49594    0.27539   1.00
C4       0.75054    0.47873    0.24970   1.00
C4       0.74946    0.52127    0.25030   1.00
C3b      0.74855    0.54101    0.28642   1.00
C5       0.74867    0.51937    0.32474   1.00
H2       0.77540    0.50129    0.32718   1.00
H2       0.74787    0.53949    0.35012   1.00
H2       0.72284    0.49995    0.32659   1.00
C3b      0.74933    0.54204    0.21476   1.00
C5       0.75029    0.52152    0.17584   1.00
H2       0.72452    0.50217    0.17287   1.00
H2       0.75004    0.54235    0.15103   1.00
H2       0.77707    0.50350    0.17346   1.00
C3a      0.74752    0.58155    0.28660   1.00
H1       0.74682    0.59700    0.31420   1.00
C3a      0.74829    0.58257    0.21572   1.00
H1       0.74818    0.59881    0.18857   1.00
C2       0.74738    0.60243    0.25145   1.00
C2       0.60243    0.24855    0.24738   1.00
C3a      0.58116    0.24924    0.21247   1.00
H1       0.59631    0.24932    0.18470   1.00
C3a      0.58296    0.24844    0.28333   1.00
H1       0.59949    0.24791    0.31030   1.00
C3b      0.54062    0.24982    0.21312   1.00
C5       0.51856    0.25055    0.17504   1.00
H2       0.50016    0.27712    0.17340   1.00
H2       0.53839    0.25054    0.14943   1.00
H2       0.49940    0.22456    0.17283   1.00
C3b      0.54244    0.24901    0.28476   1.00
C5       0.52233    0.24887    0.32391   1.00
H2       0.50330    0.22283    0.32651   1.00
H2       0.54345    0.24830    0.34848   1.00
H2       0.50406    0.27539    0.32708   1.00
C4       0.52127    0.24970    0.24946   1.00
C4       0.47873    0.25030    0.25054   1.00
C3b      0.45899    0.28642    0.25145   1.00
C5       0.48063    0.32474    0.25133   1.00
H2       0.49871    0.32718    0.22460   1.00
H2       0.46051    0.35012    0.25213   1.00
H2       0.50005    0.32659    0.27716   1.00
C3b      0.45796    0.21476    0.25067   1.00
C5       0.47848    0.17584    0.24971   1.00
H2       0.49783    0.17287    0.27548   1.00
H2       0.45765    0.15103    0.24996   1.00
H2       0.49650    0.17346    0.22293   1.00
C3a      0.41845    0.28660    0.25248   1.00
H1       0.40300    0.31420    0.25318   1.00
C3a      0.41743    0.21572    0.25171   1.00
H1       0.40119    0.18857    0.25182   1.00
C2       0.39757    0.25145    0.25262   1.00
C2       0.89757    0.24855    0.25262   1.00
C3a      0.91884    0.24924    0.28753   1.00
H1       0.90369    0.24932    0.31530   1.00
C3a      0.91704    0.24844    0.21667   1.00
H1       0.90051    0.24791    0.18970   1.00
C3b      0.95938    0.24982    0.28688   1.00
C5       0.98144    0.25055    0.32496   1.00
H2       0.99984    0.27712    0.32660   1.00
H2       0.96161    0.25054    0.35057   1.00
H2       1.00060    0.22456    0.32717   1.00
C3b      0.95756    0.24901    0.21524   1.00
C5       0.97767    0.24887    0.17609   1.00
H2       0.99670    0.22283    0.17349   1.00
H2       0.95655    0.24830    0.15152   1.00
H2       0.99594    0.27539    0.17292   1.00
C4       0.97873    0.24970    0.25054   1.00
C4       1.02127    0.25030    0.24946   1.00
C3b      1.04101    0.28642    0.24855   1.00
C5       1.01937    0.32474    0.24867   1.00
H2       1.00129    0.32718    0.27540   1.00
H2       1.03949    0.35012    0.24787   1.00
H2       0.99995    0.32659    0.22284   1.00
C3b      1.04204    0.21476    0.24933   1.00
C5       1.02152    0.17584    0.25029   1.00
H2       1.00217    0.17287    0.22452   1.00
H2       1.04235    0.15103    0.25004   1.00
H2       1.00350    0.17346    0.27707   1.00
C3a      1.08155    0.28660    0.24752   1.00
H1       1.09700    0.31420    0.24682   1.00
C3a      1.08257    0.21572    0.24829   1.00
H1       1.09881    0.18857    0.24818   1.00
C2       1.10243    0.25145    0.24738   1.00
C2       0.74738    0.10243    0.24855   1.00
C3a      0.71247    0.08116    0.24924   1.00
H1       0.68470    0.09631    0.24932   1.00
C3a      0.78333    0.08296    0.24844   1.00
H1       0.81030    0.09949    0.24791   1.00
C3b      0.71312    0.04062    0.24982   1.00
C5       0.67504    0.01856    0.25055   1.00
H2       0.67340    0.00016    0.27712   1.00
H2       0.64943    0.03839    0.25054   1.00
H2       0.67283    -0.00060   0.22456   1.00
C3b      0.78476    0.04244    0.24901   1.00
C5       0.82391    0.02233    0.24887   1.00
H2       0.82651    0.00330    0.22283   1.00
H2       0.84848    0.04345    0.24830   1.00
H2       0.82708    0.00406    0.27539   1.00
C4       0.74946    0.02127    0.24970   1.00
C4       0.75054    -0.02127   0.25030   1.00
C3b      0.75145    -0.04101   0.28642   1.00
C5       0.75133    -0.01937   0.32474   1.00
H2       0.72460    -0.00129   0.32718   1.00
H2       0.75213    -0.03949   0.35012   1.00
H2       0.77716    0.00005    0.32659   1.00
C3b      0.75067    -0.04204   0.21476   1.00
C5       0.74971    -0.02152   0.17584   1.00
H2       0.77548    -0.00217   0.17287   1.00
H2       0.74996    -0.04235   0.15103   1.00
H2       0.72293    -0.00350   0.17346   1.00
C3a      0.75248    -0.08155   0.28660   1.00
H1       0.75318    -0.09700   0.31420   1.00
C3a      0.75171    -0.08257   0.21572   1.00
H1       0.75182    -0.09881   0.18857   1.00
C2       0.75262    -0.10243   0.25145   1.00
C2       0.74855    0.24738    0.10243   1.00
C3a      0.74924    0.21247    0.08116   1.00
H1       0.74932    0.18470    0.09631   1.00
C3a      0.74844    0.28333    0.08296   1.00
H1       0.74791    0.31030    0.09949   1.00
C3b      0.74982    0.21312    0.04062   1.00
C5       0.75055    0.17504    0.01856   1.00
H2       0.77712    0.17340    0.00016   1.00
H2       0.75054    0.14943    0.03839   1.00
H2       0.72456    0.17283    -0.00060   1.00
C3b      0.74901    0.28476    0.04244   1.00
C5       0.74887    0.32391    0.02233   1.00
H2       0.72283    0.32651    0.00330   1.00
H2       0.74830    0.34848    0.04345   1.00
H2       0.77539    0.32708    0.00406   1.00
C4       0.74970    0.24946    0.02127   1.00
C4       0.75030    0.25054    -0.02127   1.00
C3b      0.78642    0.25145    -0.04101   1.00
C5       0.82474    0.25133    -0.01937   1.00
H2       0.82718    0.22460    -0.00129   1.00
H2       0.85012    0.25213    -0.03949   1.00
H2       0.82659    0.27716    0.00005   1.00
C3b      0.71476    0.25067    -0.04204   1.00
C5       0.67584    0.24971    -0.02152   1.00
H2       0.67287    0.27548    -0.00217   1.00
H2       0.65103    0.24996    -0.04235   1.00
H2       0.67346    0.22293    -0.00350   1.00
C3a      0.78660    0.25248    -0.08155   1.00
H1       0.81420    0.25318    -0.09700   1.00
C3a      0.71572    0.25171    -0.08257   1.00
H1       0.68857    0.25182    -0.09881   1.00
C2       0.75145    0.25262    -0.10243   1.00
C2       0.99855    1.00262    1.14757   1.00
C3a      0.99924    1.03753    1.16884   1.00
H1       0.99932    1.06530    1.15369   1.00
C3a      0.99844    0.96667    1.16704   1.00
H1       0.99791    0.93970    1.15051   1.00
C3b      0.99982    1.03688    1.20938   1.00
C5       1.00055    1.07496    1.23144   1.00
H2       1.02712    1.07660    1.24984   1.00
H2       1.00054    1.10057    1.21161   1.00
H2       0.97456    1.07717    1.25060   1.00
C3b      0.99901    0.96524    1.20756   1.00
C5       0.99887    0.92609    1.22767   1.00
H2       0.97283    0.92349    1.24670   1.00
H2       0.99830    0.90152    1.20655   1.00
H2       1.02539    0.92292    1.24594   1.00
C4       0.99970    1.00054    1.22873   1.00
C4       1.00030    0.99946    1.27127   1.00
C3b      1.03642    0.99855    1.29101   1.00
C5       1.07474    0.99867    1.26937   1.00
H2       1.07718    1.02540    1.25129   1.00
H2       1.10012    0.99787    1.28949   1.00
H2       1.07659    0.97284    1.24995   1.00
C3b      0.96476    0.99933    1.29204   1.00
C5       0.92584    1.00029    1.27152   1.00
H2       0.92287    0.97452    1.25217   1.00
H2       0.90103    1.00004    1.29235   1.00
H2       0.92346    1.02707    1.25350   1.00
C3a      1.03660    0.99752    1.33155   1.00
H1       1.06420    0.99682    1.34700   1.00
C3a      0.96572    0.99829    1.33257   1.00
H1       0.93857    0.99818    1.34881   1.00
C2       1.00145    0.99738    1.35243   1.00
C2       1.00262    1.14757    0.99855   1.00
C3a      1.03753    1.16884    0.99924   1.00
H1       1.06530    1.15369    0.99932   1.00
C3a      0.96667    1.16704    0.99844   1.00
H1       0.93970    1.15051    0.99791   1.00
C3b      1.03688    1.20938    0.99982   1.00
C5       1.07496    1.23144    1.00055   1.00
H2       1.07660    1.24984    1.02712   1.00
H2       1.10057    1.21161    1.00054   1.00
H2       1.07717    1.25060    0.97456   1.00
C3b      0.96524    1.20756    0.99901   1.00
C5       0.92609    1.22767    0.99887   1.00
H2       0.92349    1.24670    0.97283   1.00
H2       0.90152    1.20655    0.99830   1.00
H2       0.92292    1.24594    1.02539   1.00
C4       1.00054    1.22873    0.99970   1.00
C4       0.99946    1.27127    1.00030   1.00
C3b      0.99855    1.29101    1.03642   1.00
C5       0.99867    1.26937    1.07474   1.00
H2       1.02540    1.25129    1.07718   1.00
H2       0.99787    1.28949    1.10012   1.00
H2       0.97284    1.24995    1.07659   1.00
C3b      0.99933    1.29204    0.96476   1.00
C5       1.00029    1.27152    0.92584   1.00
H2       0.97452    1.25217    0.92287   1.00
H2       1.00004    1.29235    0.90103   1.00
H2       1.02707    1.25350    0.92346   1.00
C3a      0.99752    1.33155    1.03660   1.00
H1       0.99682    1.34700    1.06420   1.00
C3a      0.99829    1.33257    0.96572   1.00
H1       0.99818    1.34881    0.93857   1.00
C2       0.99738    1.35243    1.00145   1.00
C2       0.85243    0.99855    0.99738   1.00
C3a      0.83116    0.99924    0.96247   1.00
H1       0.84631    0.99932    0.93470   1.00
C3a      0.83296    0.99844    1.03333   1.00
H1       0.84949    0.99791    1.06030   1.00
C3b      0.79062    0.99982    0.96312   1.00
C5       0.76856    1.00055    0.92504   1.00
H2       0.75016    1.02712    0.92340   1.00
H2       0.78839    1.00054    0.89943   1.00
H2       0.74940    0.97456    0.92283   1.00
C3b      0.79244    0.99901    1.03476   1.00
C5       0.77233    0.99887    1.07391   1.00
H2       0.75330    0.97283    1.07651   1.00
H2       0.79345    0.99830    1.09848   1.00
H2       0.75406    1.02539    1.07708   1.00
C4       0.77127    0.99970    0.99946   1.00
C4       0.72873    1.00030    1.00054   1.00
C3b      0.70899    1.03642    1.00145   1.00
C5       0.73063    1.07474    1.00133   1.00
H2       0.74871    1.07718    0.97460   1.00
H2       0.71051    1.10012    1.00213   1.00
H2       0.75005    1.07659    1.02716   1.00
C3b      0.70796    0.96476    1.00067   1.00
C5       0.72848    0.92584    0.99971   1.00
H2       0.74783    0.92287    1.02548   1.00
H2       0.70765    0.90103    0.99996   1.00
H2       0.74650    0.92346    0.97293   1.00
C3a      0.66845    1.03660    1.00248   1.00
H1       0.65300    1.06420    1.00318   1.00
C3a      0.66743    0.96572    1.00171   1.00
H1       0.65119    0.93857    1.00182   1.00
C2       0.64757    1.00145    1.00262   1.00
C2       1.14757    0.99855    1.00262   1.00
C3a      1.16884    0.99924    1.03753   1.00
H1       1.15369    0.99932    1.06530   1.00
C3a      1.16704    0.99844    0.96667   1.00
H1       1.15051    0.99791    0.93970   1.00
C3b      1.20938    0.99982    1.03688   1.00
C5       1.23144    1.00055    1.07496   1.00
H2       1.24984    1.02712    1.07660   1.00
H2       1.21161    1.00054    1.10057   1.00
H2       1.25060    0.97456    1.07717   1.00
C3b      1.20756    0.99901    0.96524   1.00
C5       1.22767    0.99887    0.92609   1.00
H2       1.24670    0.97283    0.92349   1.00
H2       1.20655    0.99830    0.90152   1.00
H2       1.24594    1.02539    0.92292   1.00
C4       1.22873    0.99970    1.00054   1.00
C4       1.27127    1.00030    0.99946   1.00
C3b      1.29101    1.03642    0.99855   1.00
C5       1.26937    1.07474    0.99867   1.00
H2       1.25129    1.07718    1.02540   1.00
H2       1.28949    1.10012    0.99787   1.00
H2       1.24995    1.07659    0.97284   1.00
C3b      1.29204    0.96476    0.99933   1.00
C5       1.27152    0.92584    1.00029   1.00
H2       1.25217    0.92287    0.97452   1.00
H2       1.29235    0.90103    1.00004   1.00
H2       1.25350    0.92346    1.02707   1.00
C3a      1.33155    1.03660    0.99752   1.00
H1       1.34700    1.06420    0.99682   1.00
C3a      1.33257    0.96572    0.99829   1.00
H1       1.34881    0.93857    0.99818   1.00
C2       1.35243    1.00145    0.99738   1.00
C2       0.99738    0.85243    0.99855   1.00
C3a      0.96247    0.83116    0.99924   1.00
H1       0.93470    0.84631    0.99932   1.00
C3a      1.03333    0.83296    0.99844   1.00
H1       1.06030    0.84949    0.99791   1.00
C3b      0.96312    0.79062    0.99982   1.00
C5       0.92504    0.76856    1.00055   1.00
H2       0.92340    0.75016    1.02712   1.00
H2       0.89943    0.78839    1.00054   1.00
H2       0.92283    0.74940    0.97456   1.00
C3b      1.03476    0.79244    0.99901   1.00
C5       1.07391    0.77233    0.99887   1.00
H2       1.07651    0.75330    0.97283   1.00
H2       1.09848    0.79345    0.99830   1.00
H2       1.07708    0.75406    1.02539   1.00
C4       0.99946    0.77127    0.99970   1.00
C4       1.00054    0.72873    1.00030   1.00
C3b      1.00145    0.70899    1.03642   1.00
C5       1.00133    0.73063    1.07474   1.00
H2       0.97460    0.74871    1.07718   1.00
H2       1.00213    0.71051    1.10012   1.00
H2       1.02716    0.75005    1.07659   1.00
C3b      1.00067    0.70796    0.96476   1.00
C5       0.99971    0.72848    0.92584   1.00
H2       1.02548    0.74783    0.92287   1.00
H2       0.99996    0.70765    0.90103   1.00
H2       0.97293    0.74650    0.92346   1.00
C3a      1.00248    0.66845    1.03660   1.00
H1       1.00318    0.65300    1.06420   1.00
C3a      1.00171    0.66743    0.96572   1.00
H1       1.00182    0.65119    0.93857   1.00
C2       1.00262    0.64757    1.00145   1.00
C2       0.99855    0.99738    0.85243   1.00
C3a      0.99924    0.96247    0.83116   1.00
H1       0.99932    0.93470    0.84631   1.00
C3a      0.99844    1.03333    0.83296   1.00
H1       0.99791    1.06030    0.84949   1.00
C3b      0.99982    0.96312    0.79062   1.00
C5       1.00055    0.92504    0.76856   1.00
H2       1.02712    0.92340    0.75016   1.00
H2       1.00054    0.89943    0.78839   1.00
H2       0.97456    0.92283    0.74940   1.00
C3b      0.99901    1.03476    0.79244   1.00
C5       0.99887    1.07391    0.77233   1.00
H2       0.97283    1.07651    0.75330   1.00
H2       0.99830    1.09848    0.79345   1.00
H2       1.02539    1.07708    0.75406   1.00
C4       0.99970    0.99946    0.77127   1.00
C4       1.00030    1.00054    0.72873   1.00
C3b      1.03642    1.00145    0.70899   1.00
C5       1.07474    1.00133    0.73063   1.00
H2       1.07718    0.97460    0.74871   1.00
H2       1.10012    1.00213    0.71051   1.00
H2       1.07659    1.02716    0.75005   1.00
C3b      0.96476    1.00067    0.70796   1.00
C5       0.92584    0.99971    0.72848   1.00
H2       0.92287    1.02548    0.74783   1.00
H2       0.90103    0.99996    0.70765   1.00
H2       0.92346    0.97293    0.74650   1.00
C3a      1.03660    1.00248    0.66845   1.00
H1       1.06420    1.00318    0.65300   1.00
C3a      0.96572    1.00171    0.66743   1.00
H1       0.93857    1.00182    0.65119   1.00
C2       1.00145    1.00262    0.64757   1.00
C2       0.49855    0.50262    1.14757   1.00
C3a      0.49924    0.53753    1.16884   1.00
H1       0.49932    0.56530    1.15369   1.00
C3a      0.49844    0.46667    1.16704   1.00
H1       0.49791    0.43970    1.15051   1.00
C3b      0.49982    0.53688    1.20938   1.00
C5       0.50055    0.57496    1.23144   1.00
H2       0.52712    0.57660    1.24984   1.00
H2       0.50054    0.60057    1.21161   1.00
H2       0.47456    0.57717    1.25060   1.00
C3b      0.49901    0.46524    1.20756   1.00
C5       0.49887    0.42609    1.22767   1.00
H2       0.47283    0.42349    1.24670   1.00
H2       0.49830    0.40152    1.20655   1.00
H2       0.52539    0.42292    1.24594   1.00
C4       0.49970    0.50054    1.22873   1.00
C4       0.50030    0.49946    1.27127   1.00
C3b      0.53642    0.49855    1.29101   1.00
C5       0.57474    0.49867    1.26937   1.00
H2       0.57718    0.52540    1.25129   1.00
H2       0.60012    0.49787    1.28949   1.00
H2       0.57659    0.47284    1.24995   1.00
C3b      0.46476    0.49933    1.29204   1.00
C5       0.42584    0.50029    1.27152   1.00
H2       0.42287    0.47452    1.25217   1.00
H2       0.40103    0.50004    1.29235   1.00
H2       0.42346    0.52707    1.25350   1.00
C3a      0.53660    0.49752    1.33155   1.00
H1       0.56420    0.49682    1.34700   1.00
C3a      0.46572    0.49829    1.33257   1.00
H1       0.43857    0.49818    1.34881   1.00
C2       0.50145    0.49738    1.35243   1.00
C2       0.50262    0.64757    0.99855   1.00
C3a      0.53753    0.66884    0.99924   1.00
H1       0.56530    0.65369    0.99932   1.00
C3a      0.46667    0.66704    0.99844   1.00
H1       0.43970    0.65051    0.99791   1.00
C3b      0.53688    0.70938    0.99982   1.00
C5       0.57496    0.73144    1.00055   1.00
H2       0.57660    0.74984    1.02712   1.00
H2       0.60057    0.71161    1.00054   1.00
H2       0.57717    0.75060    0.97456   1.00
C3b      0.46524    0.70756    0.99901   1.00
C5       0.42609    0.72767    0.99887   1.00
H2       0.42349    0.74670    0.97283   1.00
H2       0.40152    0.70655    0.99830   1.00
H2       0.42292    0.74594    1.02539   1.00
C4       0.50054    0.72873    0.99970   1.00
C4       0.49946    0.77127    1.00030   1.00
C3b      0.49855    0.79101    1.03642   1.00
C5       0.49867    0.76937    1.07474   1.00
H2       0.52540    0.75129    1.07718   1.00
H2       0.49787    0.78949    1.10012   1.00
H2       0.47284    0.74995    1.07659   1.00
C3b      0.49933    0.79204    0.96476   1.00
C5       0.50029    0.77152    0.92584   1.00
H2       0.47452    0.75217    0.92287   1.00
H2       0.50004    0.79235    0.90103   1.00
H2       0.52707    0.75350    0.92346   1.00
C3a      0.49752    0.83155    1.03660   1.00
H1       0.49682    0.84700    1.06420   1.00
C3a      0.49829    0.83257    0.96572   1.00
H1       0.49818    0.84881    0.93857   1.00
C2       0.49738    0.85243    1.00145   1.00
C2       0.35243    0.49855    0.99738   1.00
C3a      0.33116    0.49924    0.96247   1.00
H1       0.34631    0.49932    0.93470   1.00
C3a      0.33296    0.49844    1.03333   1.00
H1       0.34949    0.49791    1.06030   1.00
C3b      0.29062    0.49982    0.96312   1.00
C5       0.26856    0.50055    0.92504   1.00
H2       0.25016    0.52712    0.92340   1.00
H2       0.28839    0.50054    0.89943   1.00
H2       0.24940    0.47456    0.92283   1.00
C3b      0.29244    0.49901    1.03476   1.00
C5       0.27233    0.49887    1.07391   1.00
H2       0.25330    0.47283    1.07651   1.00
H2       0.29345    0.49830    1.09848   1.00
H2       0.25406    0.52539    1.07708   1.00
C4       0.27127    0.49970    0.99946   1.00
C4       0.22873    0.50030    1.00054   1.00
C3b      0.20899    0.53642    1.00145   1.00
C5       0.23063    0.57474    1.00133   1.00
H2       0.24871    0.57718    0.97460   1.00
H2       0.21051    0.60012    1.00213   1.00
H2       0.25005    0.57659    1.02716   1.00
C3b      0.20796    0.46476    1.00067   1.00
C5       0.22848    0.42584    0.99971   1.00
H2       0.24783    0.42287    1.02548   1.00
H2       0.20765    0.40103    0.99996   1.00
H2       0.24650    0.42346    0.97293   1.00
C3a      0.16845    0.53660    1.00248   1.00
H1       0.15300    0.56420    1.00318   1.00
C3a      0.16743    0.46572    1.00171   1.00
H1       0.15119    0.43857    1.00182   1.00
C2       0.14757    0.50145    1.00262   1.00
C2       0.64757    0.49855    1.00262   1.00
C3a      0.66884    0.49924    1.03753   1.00
H1       0.65369    0.49932    1.06530   1.00
C3a      0.66704    0.49844    0.96667   1.00
H1       0.65051    0.49791    0.93970   1.00
C3b      0.70938    0.49982    1.03688   1.00
C5       0.73144    0.50055    1.07496   1.00
H2       0.74984    0.52712    1.07660   1.00
H2       0.71161    0.50054    1.10057   1.00
H2       0.75060    0.47456    1.07717   1.00
C3b      0.70756    0.49901    0.96524   1.00
C5       0.72767    0.49887    0.92609   1.00
H2       0.74670    0.47283    0.92349   1.00
H2       0.70655    0.49830    0.90152   1.00
H2       0.74594    0.52539    0.92292   1.00
C4       0.72873    0.49970    1.00054   1.00
C4       0.77127    0.50030    0.99946   1.00
C3b      0.79101    0.53642    0.99855   1.00
C5       0.76937    0.57474    0.99867   1.00
H2       0.75129    0.57718    1.02540   1.00
H2       0.78949    0.60012    0.99787   1.00
H2       0.74995    0.57659    0.97284   1.00
C3b      0.79204    0.46476    0.99933   1.00
C5       0.77152    0.42584    1.00029   1.00
H2       0.75217    0.42287    0.97452   1.00
H2       0.79235    0.40103    1.00004   1.00
H2       0.75350    0.42346    1.02707   1.00
C3a      0.83155    0.53660    0.99752   1.00
H1       0.84700    0.56420    0.99682   1.00
C3a      0.83257    0.46572    0.99829   1.00
H1       0.84881    0.43857    0.99818   1.00
C2       0.85243    0.50145    0.99738   1.00
C2       0.49738    0.35243    0.99855   1.00
C3a      0.46247    0.33116    0.99924   1.00
H1       0.43470    0.34631    0.99932   1.00
C3a      0.53333    0.33296    0.99844   1.00
H1       0.56030    0.34949    0.99791   1.00
C3b      0.46312    0.29062    0.99982   1.00
C5       0.42504    0.26856    1.00055   1.00
H2       0.42340    0.25016    1.02712   1.00
H2       0.39943    0.28839    1.00054   1.00
H2       0.42283    0.24940    0.97456   1.00
C3b      0.53476    0.29244    0.99901   1.00
C5       0.57391    0.27233    0.99887   1.00
H2       0.57651    0.25330    0.97283   1.00
H2       0.59848    0.29345    0.99830   1.00
H2       0.57708    0.25406    1.02539   1.00
C4       0.49946    0.27127    0.99970   1.00
C4       0.50054    0.22873    1.00030   1.00
C3b      0.50145    0.20899    1.03642   1.00
C5       0.50133    0.23063    1.07474   1.00
H2       0.47460    0.24871    1.07718   1.00
H2       0.50213    0.21051    1.10012   1.00
H2       0.52716    0.25005    1.07659   1.00
C3b      0.50067    0.20796    0.96476   1.00
C5       0.49971    0.22848    0.92584   1.00
H2       0.52548    0.24783    0.92287   1.00
H2       0.49996    0.20765    0.90103   1.00
H2       0.47293    0.24650    0.92346   1.00
C3a      0.50248    0.16845    1.03660   1.00
H1       0.50318    0.15300    1.06420   1.00
C3a      0.50171    0.16743    0.96572   1.00
H1       0.50182    0.15119    0.93857   1.00
C2       0.50262    0.14757    1.00145   1.00
C2       0.49855    0.49738    0.85243   1.00
C3a      0.49924    0.46247    0.83116   1.00
H1       0.49932    0.43470    0.84631   1.00
C3a      0.49844    0.53333    0.83296   1.00
H1       0.49791    0.56030    0.84949   1.00
C3b      0.49982    0.46312    0.79062   1.00
C5       0.50055    0.42504    0.76856   1.00
H2       0.52712    0.42340    0.75016   1.00
H2       0.50054    0.39943    0.78839   1.00
H2       0.47456    0.42283    0.74940   1.00
C3b      0.49901    0.53476    0.79244   1.00
C5       0.49887    0.57391    0.77233   1.00
H2       0.47283    0.57651    0.75330   1.00
H2       0.49830    0.59848    0.79345   1.00
H2       0.52539    0.57708    0.75406   1.00
C4       0.49970    0.49946    0.77127   1.00
C4       0.50030    0.50054    0.72873   1.00
C3b      0.53642    0.50145    0.70899   1.00
C5       0.57474    0.50133    0.73063   1.00
H2       0.57718    0.47460    0.74871   1.00
H2       0.60012    0.50213    0.71051   1.00
H2       0.57659    0.52716    0.75005   1.00
C3b      0.46476    0.50067    0.70796   1.00
C5       0.42584    0.49971    0.72848   1.00
H2       0.42287    0.52548    0.74783   1.00
H2       0.40103    0.49996    0.70765   1.00
H2       0.42346    0.47293    0.74650   1.00
C3a      0.53660    0.50248    0.66845   1.00
H1       0.56420    0.50318    0.65300   1.00
C3a      0.46572    0.50171    0.66743   1.00
H1       0.43857    0.50182    0.65119   1.00
C2       0.50145    0.50262    0.64757   1.00
C2       0.49855    1.00262    0.64757   1.00
C3a      0.49924    1.03753    0.66884   1.00
H1       0.49932    1.06530    0.65369   1.00
C3a      0.49844    0.96667    0.66704   1.00
H1       0.49791    0.93970    0.65051   1.00
C3b      0.49982    1.03688    0.70938   1.00
C5       0.50055    1.07496    0.73144   1.00
H2       0.52712    1.07660    0.74984   1.00
H2       0.50054    1.10057    0.71161   1.00
H2       0.47456    1.07717    0.75060   1.00
C3b      0.49901    0.96524    0.70756   1.00
C5       0.49887    0.92609    0.72767   1.00
H2       0.47283    0.92349    0.74670   1.00
H2       0.49830    0.90152    0.70655   1.00
H2       0.52539    0.92292    0.74594   1.00
C4       0.49970    1.00054    0.72873   1.00
C4       0.50030    0.99946    0.77127   1.00
C3b      0.53642    0.99855    0.79101   1.00
C5       0.57474    0.99867    0.76937   1.00
H2       0.57718    1.02540    0.75129   1.00
H2       0.60012    0.99787    0.78949   1.00
H2       0.57659    0.97284    0.74995   1.00
C3b      0.46476    0.99933    0.79204   1.00
C5       0.42584    1.00029    0.77152   1.00
H2       0.42287    0.97452    0.75217   1.00
H2       0.40103    1.00004    0.79235   1.00
H2       0.42346    1.02707    0.75350   1.00
C3a      0.53660    0.99752    0.83155   1.00
H1       0.56420    0.99682    0.84700   1.00
C3a      0.46572    0.99829    0.83257   1.00
H1       0.43857    0.99818    0.84881   1.00
C2       0.50145    0.99738    0.85243   1.00
C2       0.50262    1.14757    0.49855   1.00
C3a      0.53753    1.16884    0.49924   1.00
H1       0.56530    1.15369    0.49932   1.00
C3a      0.46667    1.16704    0.49844   1.00
H1       0.43970    1.15051    0.49791   1.00
C3b      0.53688    1.20938    0.49982   1.00
C5       0.57496    1.23144    0.50055   1.00
H2       0.57660    1.24984    0.52712   1.00
H2       0.60057    1.21161    0.50054   1.00
H2       0.57717    1.25060    0.47456   1.00
C3b      0.46524    1.20756    0.49901   1.00
C5       0.42609    1.22767    0.49887   1.00
H2       0.42349    1.24670    0.47283   1.00
H2       0.40152    1.20655    0.49830   1.00
H2       0.42292    1.24594    0.52539   1.00
C4       0.50054    1.22873    0.49970   1.00
C4       0.49946    1.27127    0.50030   1.00
C3b      0.49855    1.29101    0.53642   1.00
C5       0.49867    1.26937    0.57474   1.00
H2       0.52540    1.25129    0.57718   1.00
H2       0.49787    1.28949    0.60012   1.00
H2       0.47284    1.24995    0.57659   1.00
C3b      0.49933    1.29204    0.46476   1.00
C5       0.50029    1.27152    0.42584   1.00
H2       0.47452    1.25217    0.42287   1.00
H2       0.50004    1.29235    0.40103   1.00
H2       0.52707    1.25350    0.42346   1.00
C3a      0.49752    1.33155    0.53660   1.00
H1       0.49682    1.34700    0.56420   1.00
C3a      0.49829    1.33257    0.46572   1.00
H1       0.49818    1.34881    0.43857   1.00
C2       0.49738    1.35243    0.50145   1.00
C2       0.35243    0.99855    0.49738   1.00
C3a      0.33116    0.99924    0.46247   1.00
H1       0.34631    0.99932    0.43470   1.00
C3a      0.33296    0.99844    0.53333   1.00
H1       0.34949    0.99791    0.56030   1.00
C3b      0.29062    0.99982    0.46312   1.00
C5       0.26856    1.00055    0.42504   1.00
H2       0.25016    1.02712    0.42340   1.00
H2       0.28839    1.00054    0.39943   1.00
H2       0.24940    0.97456    0.42283   1.00
C3b      0.29244    0.99901    0.53476   1.00
C5       0.27233    0.99887    0.57391   1.00
H2       0.25330    0.97283    0.57651   1.00
H2       0.29345    0.99830    0.59848   1.00
H2       0.25406    1.02539    0.57708   1.00
C4       0.27127    0.99970    0.49946   1.00
C4       0.22873    1.00030    0.50054   1.00
C3b      0.20899    1.03642    0.50145   1.00
C5       0.23063    1.07474    0.50133   1.00
H2       0.24871    1.07718    0.47460   1.00
H2       0.21051    1.10012    0.50213   1.00
H2       0.25005    1.07659    0.52716   1.00
C3b      0.20796    0.96476    0.50067   1.00
C5       0.22848    0.92584    0.49971   1.00
H2       0.24783    0.92287    0.52548   1.00
H2       0.20765    0.90103    0.49996   1.00
H2       0.24650    0.92346    0.47293   1.00
C3a      0.16845    1.03660    0.50248   1.00
H1       0.15300    1.06420    0.50318   1.00
C3a      0.16743    0.96572    0.50171   1.00
H1       0.15119    0.93857    0.50182   1.00
C2       0.14757    1.00145    0.50262   1.00
C2       0.64757    0.99855    0.50262   1.00
C3a      0.66884    0.99924    0.53753   1.00
H1       0.65369    0.99932    0.56530   1.00
C3a      0.66704    0.99844    0.46667   1.00
H1       0.65051    0.99791    0.43970   1.00
C3b      0.70938    0.99982    0.53688   1.00
C5       0.73144    1.00055    0.57496   1.00
H2       0.74984    1.02712    0.57660   1.00
H2       0.71161    1.00054    0.60057   1.00
H2       0.75060    0.97456    0.57717   1.00
C3b      0.70756    0.99901    0.46524   1.00
C5       0.72767    0.99887    0.42609   1.00
H2       0.74670    0.97283    0.42349   1.00
H2       0.70655    0.99830    0.40152   1.00
H2       0.74594    1.02539    0.42292   1.00
C4       0.72873    0.99970    0.50054   1.00
C4       0.77127    1.00030    0.49946   1.00
C3b      0.79101    1.03642    0.49855   1.00
C5       0.76937    1.07474    0.49867   1.00
H2       0.75129    1.07718    0.52540   1.00
H2       0.78949    1.10012    0.49787   1.00
H2       0.74995    1.07659    0.47284   1.00
C3b      0.79204    0.96476    0.49933   1.00
C5       0.77152    0.92584    0.50029   1.00
H2       0.75217    0.92287    0.47452   1.00
H2       0.79235    0.90103    0.50004   1.00
H2       0.75350    0.92346    0.52707   1.00
C3a      0.83155    1.03660    0.49752   1.00
H1       0.84700    1.06420    0.49682   1.00
C3a      0.83257    0.96572    0.49829   1.00
H1       0.84881    0.93857    0.49818   1.00
C2       0.85243    1.00145    0.49738   1.00
C2       0.49738    0.85243    0.49855   1.00
C3a      0.46247    0.83116    0.49924   1.00
H1       0.43470    0.84631    0.49932   1.00
C3a      0.53333    0.83296    0.49844   1.00
H1       0.56030    0.84949    0.49791   1.00
C3b      0.46312    0.79062    0.49982   1.00
C5       0.42504    0.76856    0.50055   1.00
H2       0.42340    0.75016    0.52712   1.00
H2       0.39943    0.78839    0.50054   1.00
H2       0.42283    0.74940    0.47456   1.00
C3b      0.53476    0.79244    0.49901   1.00
C5       0.57391    0.77233    0.49887   1.00
H2       0.57651    0.75330    0.47283   1.00
H2       0.59848    0.79345    0.49830   1.00
H2       0.57708    0.75406    0.52539   1.00
C4       0.49946    0.77127    0.49970   1.00
C4       0.50054    0.72873    0.50030   1.00
C3b      0.50145    0.70899    0.53642   1.00
C5       0.50133    0.73063    0.57474   1.00
H2       0.47460    0.74871    0.57718   1.00
H2       0.50213    0.71051    0.60012   1.00
H2       0.52716    0.75005    0.57659   1.00
C3b      0.50067    0.70796    0.46476   1.00
C5       0.49971    0.72848    0.42584   1.00
H2       0.52548    0.74783    0.42287   1.00
H2       0.49996    0.70765    0.40103   1.00
H2       0.47293    0.74650    0.42346   1.00
C3a      0.50248    0.66845    0.53660   1.00
H1       0.50318    0.65300    0.56420   1.00
C3a      0.50171    0.66743    0.46572   1.00
H1       0.50182    0.65119    0.43857   1.00
C2       0.50262    0.64757    0.50145   1.00
C2       0.49855    0.99738    0.35243   1.00
C3a      0.49924    0.96247    0.33116   1.00
H1       0.49932    0.93470    0.34631   1.00
C3a      0.49844    1.03333    0.33296   1.00
H1       0.49791    1.06030    0.34949   1.00
C3b      0.49982    0.96312    0.29062   1.00
C5       0.50055    0.92504    0.26856   1.00
H2       0.52712    0.92340    0.25016   1.00
H2       0.50054    0.89943    0.28839   1.00
H2       0.47456    0.92283    0.24940   1.00
C3b      0.49901    1.03476    0.29244   1.00
C5       0.49887    1.07391    0.27233   1.00
H2       0.47283    1.07651    0.25330   1.00
H2       0.49830    1.09848    0.29345   1.00
H2       0.52539    1.07708    0.25406   1.00
C4       0.49970    0.99946    0.27127   1.00
C4       0.50030    1.00054    0.22873   1.00
C3b      0.53642    1.00145    0.20899   1.00
C5       0.57474    1.00133    0.23063   1.00
H2       0.57718    0.97460    0.24871   1.00
H2       0.60012    1.00213    0.21051   1.00
H2       0.57659    1.02716    0.25005   1.00
C3b      0.46476    1.00067    0.20796   1.00
C5       0.42584    0.99971    0.22848   1.00
H2       0.42287    1.02548    0.24783   1.00
H2       0.40103    0.99996    0.20765   1.00
H2       0.42346    0.97293    0.24650   1.00
C3a      0.53660    1.00248    0.16845   1.00
H1       0.56420    1.00318    0.15300   1.00
C3a      0.46572    1.00171    0.16743   1.00
H1       0.43857    1.00182    0.15119   1.00
C2       0.50145    1.00262    0.14757   1.00
C2       0.99855    0.50262    0.64757   1.00
C3a      0.99924    0.53753    0.66884   1.00
H1       0.99932    0.56530    0.65369   1.00
C3a      0.99844    0.46667    0.66704   1.00
H1       0.99791    0.43970    0.65051   1.00
C3b      0.99982    0.53688    0.70938   1.00
C5       1.00055    0.57496    0.73144   1.00
H2       1.02712    0.57660    0.74984   1.00
H2       1.00054    0.60057    0.71161   1.00
H2       0.97456    0.57717    0.75060   1.00
C3b      0.99901    0.46524    0.70756   1.00
C5       0.99887    0.42609    0.72767   1.00
H2       0.97283    0.42349    0.74670   1.00
H2       0.99830    0.40152    0.70655   1.00
H2       1.02539    0.42292    0.74594   1.00
C4       0.99970    0.50054    0.72873   1.00
C4       1.00030    0.49946    0.77127   1.00
C3b      1.03642    0.49855    0.79101   1.00
C5       1.07474    0.49867    0.76937   1.00
H2       1.07718    0.52540    0.75129   1.00
H2       1.10012    0.49787    0.78949   1.00
H2       1.07659    0.47284    0.74995   1.00
C3b      0.96476    0.49933    0.79204   1.00
C5       0.92584    0.50029    0.77152   1.00
H2       0.92287    0.47452    0.75217   1.00
H2       0.90103    0.50004    0.79235   1.00
H2       0.92346    0.52707    0.75350   1.00
C3a      1.03660    0.49752    0.83155   1.00
H1       1.06420    0.49682    0.84700   1.00
C3a      0.96572    0.49829    0.83257   1.00
H1       0.93857    0.49818    0.84881   1.00
C2       1.00145    0.49738    0.85243   1.00
C2       1.00262    0.64757    0.49855   1.00
C3a      1.03753    0.66884    0.49924   1.00
H1       1.06530    0.65369    0.49932   1.00
C3a      0.96667    0.66704    0.49844   1.00
H1       0.93970    0.65051    0.49791   1.00
C3b      1.03688    0.70938    0.49982   1.00
C5       1.07496    0.73144    0.50055   1.00
H2       1.07660    0.74984    0.52712   1.00
H2       1.10057    0.71161    0.50054   1.00
H2       1.07717    0.75060    0.47456   1.00
C3b      0.96524    0.70756    0.49901   1.00
C5       0.92609    0.72767    0.49887   1.00
H2       0.92349    0.74670    0.47283   1.00
H2       0.90152    0.70655    0.49830   1.00
H2       0.92292    0.74594    0.52539   1.00
C4       1.00054    0.72873    0.49970   1.00
C4       0.99946    0.77127    0.50030   1.00
C3b      0.99855    0.79101    0.53642   1.00
C5       0.99867    0.76937    0.57474   1.00
H2       1.02540    0.75129    0.57718   1.00
H2       0.99787    0.78949    0.60012   1.00
H2       0.97284    0.74995    0.57659   1.00
C3b      0.99933    0.79204    0.46476   1.00
C5       1.00029    0.77152    0.42584   1.00
H2       0.97452    0.75217    0.42287   1.00
H2       1.00004    0.79235    0.40103   1.00
H2       1.02707    0.75350    0.42346   1.00
C3a      0.99752    0.83155    0.53660   1.00
H1       0.99682    0.84700    0.56420   1.00
C3a      0.99829    0.83257    0.46572   1.00
H1       0.99818    0.84881    0.43857   1.00
C2       0.99738    0.85243    0.50145   1.00
C2       0.85243    0.49855    0.49738   1.00
C3a      0.83116    0.49924    0.46247   1.00
H1       0.84631    0.49932    0.43470   1.00
C3a      0.83296    0.49844    0.53333   1.00
H1       0.84949    0.49791    0.56030   1.00
C3b      0.79062    0.49982    0.46312   1.00
C5       0.76856    0.50055    0.42504   1.00
H2       0.75016    0.52712    0.42340   1.00
H2       0.78839    0.50054    0.39943   1.00
H2       0.74940    0.47456    0.42283   1.00
C3b      0.79244    0.49901    0.53476   1.00
C5       0.77233    0.49887    0.57391   1.00
H2       0.75330    0.47283    0.57651   1.00
H2       0.79345    0.49830    0.59848   1.00
H2       0.75406    0.52539    0.57708   1.00
C4       0.77127    0.49970    0.49946   1.00
C4       0.72873    0.50030    0.50054   1.00
C3b      0.70899    0.53642    0.50145   1.00
C5       0.73063    0.57474    0.50133   1.00
H2       0.74871    0.57718    0.47460   1.00
H2       0.71051    0.60012    0.50213   1.00
H2       0.75005    0.57659    0.52716   1.00
C3b      0.70796    0.46476    0.50067   1.00
C5       0.72848    0.42584    0.49971   1.00
H2       0.74783    0.42287    0.52548   1.00
H2       0.70765    0.40103    0.49996   1.00
H2       0.74650    0.42346    0.47293   1.00
C3a      0.66845    0.53660    0.50248   1.00
H1       0.65300    0.56420    0.50318   1.00
C3a      0.66743    0.46572    0.50171   1.00
H1       0.65119    0.43857    0.50182   1.00
C2       0.64757    0.50145    0.50262   1.00
C2       1.14757    0.49855    0.50262   1.00
C3a      1.16884    0.49924    0.53753   1.00
H1       1.15369    0.49932    0.56530   1.00
C3a      1.16704    0.49844    0.46667   1.00
H1       1.15051    0.49791    0.43970   1.00
C3b      1.20938    0.49982    0.53688   1.00
C5       1.23144    0.50055    0.57496   1.00
H2       1.24984    0.52712    0.57660   1.00
H2       1.21161    0.50054    0.60057   1.00
H2       1.25060    0.47456    0.57717   1.00
C3b      1.20756    0.49901    0.46524   1.00
C5       1.22767    0.49887    0.42609   1.00
H2       1.24670    0.47283    0.42349   1.00
H2       1.20655    0.49830    0.40152   1.00
H2       1.24594    0.52539    0.42292   1.00
C4       1.22873    0.49970    0.50054   1.00
C4       1.27127    0.50030    0.49946   1.00
C3b      1.29101    0.53642    0.49855   1.00
C5       1.26937    0.57474    0.49867   1.00
H2       1.25129    0.57718    0.52540   1.00
H2       1.28949    0.60012    0.49787   1.00
H2       1.24995    0.57659    0.47284   1.00
C3b      1.29204    0.46476    0.49933   1.00
C5       1.27152    0.42584    0.50029   1.00
H2       1.25217    0.42287    0.47452   1.00
H2       1.29235    0.40103    0.50004   1.00
H2       1.25350    0.42346    0.52707   1.00
C3a      1.33155    0.53660    0.49752   1.00
H1       1.34700    0.56420    0.49682   1.00
C3a      1.33257    0.46572    0.49829   1.00
H1       1.34881    0.43857    0.49818   1.00
C2       1.35243    0.50145    0.49738   1.00
C2       0.99738    0.35243    0.49855   1.00
C3a      0.96247    0.33116    0.49924   1.00
H1       0.93470    0.34631    0.49932   1.00
C3a      1.03333    0.33296    0.49844   1.00
H1       1.06030    0.34949    0.49791   1.00
C3b      0.96312    0.29062    0.49982   1.00
C5       0.92504    0.26856    0.50055   1.00
H2       0.92340    0.25016    0.52712   1.00
H2       0.89943    0.28839    0.50054   1.00
H2       0.92283    0.24940    0.47456   1.00
C3b      1.03476    0.29244    0.49901   1.00
C5       1.07391    0.27233    0.49887   1.00
H2       1.07651    0.25330    0.47283   1.00
H2       1.09848    0.29345    0.49830   1.00
H2       1.07708    0.25406    0.52539   1.00
C4       0.99946    0.27127    0.49970   1.00
C4       1.00054    0.22873    0.50030   1.00
C3b      1.00145    0.20899    0.53642   1.00
C5       1.00133    0.23063    0.57474   1.00
H2       0.97460    0.24871    0.57718   1.00
H2       1.00213    0.21051    0.60012   1.00
H2       1.02716    0.25005    0.57659   1.00
C3b      1.00067    0.20796    0.46476   1.00
C5       0.99971    0.22848    0.42584   1.00
H2       1.02548    0.24783    0.42287   1.00
H2       0.99996    0.20765    0.40103   1.00
H2       0.97293    0.24650    0.42346   1.00
C3a      1.00248    0.16845    0.53660   1.00
H1       1.00318    0.15300    0.56420   1.00
C3a      1.00171    0.16743    0.46572   1.00
H1       1.00182    0.15119    0.43857   1.00
C2       1.00262    0.14757    0.50145   1.00
C2       0.99855    0.49738    0.35243   1.00
C3a      0.99924    0.46247    0.33116   1.00
H1       0.99932    0.43470    0.34631   1.00
C3a      0.99844    0.53333    0.33296   1.00
H1       0.99791    0.56030    0.34949   1.00
C3b      0.99982    0.46312    0.29062   1.00
C5       1.00055    0.42504    0.26856   1.00
H2       1.02712    0.42340    0.25016   1.00
H2       1.00054    0.39943    0.28839   1.00
H2       0.97456    0.42283    0.24940   1.00
C3b      0.99901    0.53476    0.29244   1.00
C5       0.99887    0.57391    0.27233   1.00
H2       0.97283    0.57651    0.25330   1.00
H2       0.99830    0.59848    0.29345   1.00
H2       1.02539    0.57708    0.25406   1.00
C4       0.99970    0.49946    0.27127   1.00
C4       1.00030    0.50054    0.22873   1.00
C3b      1.03642    0.50145    0.20899   1.00
C5       1.07474    0.50133    0.23063   1.00
H2       1.07718    0.47460    0.24871   1.00
H2       1.10012    0.50213    0.21051   1.00
H2       1.07659    0.52716    0.25005   1.00
C3b      0.96476    0.50067    0.20796   1.00
C5       0.92584    0.49971    0.22848   1.00
H2       0.92287    0.52548    0.24783   1.00
H2       0.90103    0.49996    0.20765   1.00
H2       0.92346    0.47293    0.24650   1.00
C3a      1.03660    0.50248    0.16845   1.00
H1       1.06420    0.50318    0.15300   1.00
C3a      0.96572    0.50171    0.16743   1.00
H1       0.93857    0.50182    0.15119   1.00
C2       1.00145    0.50262    0.14757   1.00
