data_IRMOF10_SG202_interpen_Ligand10lp_label_f.

_audit_creation_method             'generated by an auxiliary program of Tobunporous'

_symmetry_space_group_name_H-M     'P 1'
_symmetry_Int_Tables_number        1
_symmetry_cell_setting             triclinic

_cell_length_a                    34.2800
_cell_length_b                    34.2800
_cell_length_c                    34.2800
_cell_angle_alpha                 90.0000
_cell_angle_beta                  90.0000
_cell_angle_gamma                 90.0000

loop_
_atom_site_label
_atom_site_fract_x
_atom_site_fract_y
_atom_site_fract_z
_atom_site_occupancy
O1       0.75000    0.75000    0.75000   1.00
Zn1      0.71720    0.78280    0.78280   1.00
Zn1      0.78280    0.71720    0.78280   1.00
Zn1      0.78280    0.78280    0.71720   1.00
Zn1      0.71720    0.71720    0.71720   1.00
O2       0.72650    0.77350    0.83820   1.00
O2       0.72650    0.83820    0.77350   1.00
O2       0.66180    0.77350    0.77350   1.00
O2       0.77350    0.72650    0.83820   1.00
O2       0.83820    0.72650    0.77350   1.00
O2       0.77350    0.66180    0.77350   1.00
O2       0.77350    0.83820    0.72650   1.00
O2       0.83820    0.77350    0.72650   1.00
O2       0.77350    0.77350    0.66180   1.00
O2       0.66180    0.72650    0.72650   1.00
O2       0.72650    0.66180    0.72650   1.00
O2       0.72650    0.72650    0.66180   1.00
C1       0.75000    0.75000    0.85520   1.00
C1       0.75000    0.85520    0.75000   1.00
C1       0.64480    0.75000    0.75000   1.00
C1       0.85520    0.75000    0.75000   1.00
C1       0.75000    0.64480    0.75000   1.00
C1       0.75000    0.75000    0.64480   1.00
O1       0.25000    0.25000    0.75000   1.00
Zn1      0.21720    0.28280    0.78280   1.00
Zn1      0.28280    0.21720    0.78280   1.00
Zn1      0.28280    0.28280    0.71720   1.00
Zn1      0.21720    0.21720    0.71720   1.00
O2       0.22650    0.27350    0.83820   1.00
O2       0.22650    0.33820    0.77350   1.00
O2       0.16180    0.27350    0.77350   1.00
O2       0.27350    0.22650    0.83820   1.00
O2       0.33820    0.22650    0.77350   1.00
O2       0.27350    0.16180    0.77350   1.00
O2       0.27350    0.33820    0.72650   1.00
O2       0.33820    0.27350    0.72650   1.00
O2       0.27350    0.27350    0.66180   1.00
O2       0.16180    0.22650    0.72650   1.00
O2       0.22650    0.16180    0.72650   1.00
O2       0.22650    0.22650    0.66180   1.00
C1       0.25000    0.25000    0.85520   1.00
C1       0.25000    0.35520    0.75000   1.00
C1       0.14480    0.25000    0.75000   1.00
C1       0.35520    0.25000    0.75000   1.00
C1       0.25000    0.14480    0.75000   1.00
C1       0.25000    0.25000    0.64480   1.00
O1       0.25000    0.75000    0.25000   1.00
Zn1      0.21720    0.78280    0.28280   1.00
Zn1      0.28280    0.71720    0.28280   1.00
Zn1      0.28280    0.78280    0.21720   1.00
Zn1      0.21720    0.71720    0.21720   1.00
O2       0.22650    0.77350    0.33820   1.00
O2       0.22650    0.83820    0.27350   1.00
O2       0.16180    0.77350    0.27350   1.00
O2       0.27350    0.72650    0.33820   1.00
O2       0.33820    0.72650    0.27350   1.00
O2       0.27350    0.66180    0.27350   1.00
O2       0.27350    0.83820    0.22650   1.00
O2       0.33820    0.77350    0.22650   1.00
O2       0.27350    0.77350    0.16180   1.00
O2       0.16180    0.72650    0.22650   1.00
O2       0.22650    0.66180    0.22650   1.00
O2       0.22650    0.72650    0.16180   1.00
C1       0.25000    0.75000    0.35520   1.00
C1       0.25000    0.85520    0.25000   1.00
C1       0.14480    0.75000    0.25000   1.00
C1       0.35520    0.75000    0.25000   1.00
C1       0.25000    0.64480    0.25000   1.00
C1       0.25000    0.75000    0.14480   1.00
O1       0.75000    0.25000    0.25000   1.00
Zn1      0.71720    0.28280    0.28280   1.00
Zn1      0.78280    0.21720    0.28280   1.00
Zn1      0.78280    0.28280    0.21720   1.00
Zn1      0.71720    0.21720    0.21720   1.00
O2       0.72650    0.27350    0.33820   1.00
O2       0.72650    0.33820    0.27350   1.00
O2       0.66180    0.27350    0.27350   1.00
O2       0.77350    0.22650    0.33820   1.00
O2       0.83820    0.22650    0.27350   1.00
O2       0.77350    0.16180    0.27350   1.00
O2       0.77350    0.33820    0.22650   1.00
O2       0.83820    0.27350    0.22650   1.00
O2       0.77350    0.27350    0.16180   1.00
O2       0.66180    0.22650    0.22650   1.00
O2       0.72650    0.16180    0.22650   1.00
O2       0.72650    0.22650    0.16180   1.00
C1       0.75000    0.25000    0.35520   1.00
C1       0.75000    0.35520    0.25000   1.00
C1       0.64480    0.25000    0.25000   1.00
C1       0.85520    0.25000    0.25000   1.00
C1       0.75000    0.14480    0.25000   1.00
C1       0.75000    0.25000    0.14480   1.00
O1       0.25000    0.25000    0.25000   1.00
Zn1      0.28280    0.21720    0.21720   1.00
Zn1      0.21720    0.28280    0.21720   1.00
Zn1      0.21720    0.21720    0.28280   1.00
Zn1      0.28280    0.28280    0.28280   1.00
O2       0.27350    0.22650    0.16180   1.00
O2       0.27350    0.16180    0.22650   1.00
O2       0.33820    0.22650    0.22650   1.00
O2       0.22650    0.27350    0.16180   1.00
O2       0.16180    0.27350    0.22650   1.00
O2       0.22650    0.33820    0.22650   1.00
O2       0.22650    0.16180    0.27350   1.00
O2       0.16180    0.22650    0.27350   1.00
O2       0.22650    0.22650    0.33820   1.00
O2       0.33820    0.27350    0.27350   1.00
O2       0.27350    0.33820    0.27350   1.00
O2       0.27350    0.27350    0.33820   1.00
C1       0.25000    0.25000    0.14480   1.00
C1       0.25000    0.14480    0.25000   1.00
C1       0.35520    0.25000    0.25000   1.00
C1       0.14480    0.25000    0.25000   1.00
C1       0.25000    0.35520    0.25000   1.00
C1       0.25000    0.25000    0.35520   1.00
O1       0.75000    0.75000    0.25000   1.00
Zn1      0.78280    0.71720    0.21720   1.00
Zn1      0.71720    0.78280    0.21720   1.00
Zn1      0.71720    0.71720    0.28280   1.00
Zn1      0.78280    0.78280    0.28280   1.00
O2       0.77350    0.72650    0.16180   1.00
O2       0.77350    0.66180    0.22650   1.00
O2       0.83820    0.72650    0.22650   1.00
O2       0.72650    0.77350    0.16180   1.00
O2       0.66180    0.77350    0.22650   1.00
O2       0.72650    0.83820    0.22650   1.00
O2       0.72650    0.66180    0.27350   1.00
O2       0.66180    0.72650    0.27350   1.00
O2       0.72650    0.72650    0.33820   1.00
O2       0.83820    0.77350    0.27350   1.00
O2       0.77350    0.83820    0.27350   1.00
O2       0.77350    0.77350    0.33820   1.00
C1       0.75000    0.75000    0.14480   1.00
C1       0.75000    0.64480    0.25000   1.00
C1       0.85520    0.75000    0.25000   1.00
C1       0.64480    0.75000    0.25000   1.00
C1       0.75000    0.85520    0.25000   1.00
C1       0.75000    0.75000    0.35520   1.00
O1       0.75000    0.25000    0.75000   1.00
Zn1      0.78280    0.21720    0.71720   1.00
Zn1      0.71720    0.28280    0.71720   1.00
Zn1      0.71720    0.21720    0.78280   1.00
Zn1      0.78280    0.28280    0.78280   1.00
O2       0.77350    0.22650    0.66180   1.00
O2       0.77350    0.16180    0.72650   1.00
O2       0.83820    0.22650    0.72650   1.00
O2       0.72650    0.27350    0.66180   1.00
O2       0.66180    0.27350    0.72650   1.00
O2       0.72650    0.33820    0.72650   1.00
O2       0.72650    0.16180    0.77350   1.00
O2       0.66180    0.22650    0.77350   1.00
O2       0.72650    0.22650    0.83820   1.00
O2       0.83820    0.27350    0.77350   1.00
O2       0.77350    0.33820    0.77350   1.00
O2       0.77350    0.27350    0.83820   1.00
C1       0.75000    0.25000    0.64480   1.00
C1       0.75000    0.14480    0.75000   1.00
C1       0.85520    0.25000    0.75000   1.00
C1       0.64480    0.25000    0.75000   1.00
C1       0.75000    0.35520    0.75000   1.00
C1       0.75000    0.25000    0.85520   1.00
O1       0.25000    0.75000    0.75000   1.00
Zn1      0.28280    0.71720    0.71720   1.00
Zn1      0.21720    0.78280    0.71720   1.00
Zn1      0.21720    0.71720    0.78280   1.00
Zn1      0.28280    0.78280    0.78280   1.00
O2       0.27350    0.72650    0.66180   1.00
O2       0.27350    0.66180    0.72650   1.00
O2       0.33820    0.72650    0.72650   1.00
O2       0.22650    0.77350    0.66180   1.00
O2       0.16180    0.77350    0.72650   1.00
O2       0.22650    0.83820    0.72650   1.00
O2       0.22650    0.66180    0.77350   1.00
O2       0.16180    0.72650    0.77350   1.00
O2       0.22650    0.72650    0.83820   1.00
O2       0.33820    0.77350    0.77350   1.00
O2       0.27350    0.83820    0.77350   1.00
O2       0.27350    0.77350    0.83820   1.00
C1       0.25000    0.75000    0.64480   1.00
C1       0.25000    0.64480    0.75000   1.00
C1       0.35520    0.75000    0.75000   1.00
C1       0.14480    0.75000    0.75000   1.00
C1       0.25000    0.85520    0.75000   1.00
C1       0.25000    0.75000    0.85520   1.00
O1       1.00000    1.00000    1.00000   1.00
Zn1      0.96720    1.03280    1.03280   1.00
Zn1      1.03280    0.96720    1.03280   1.00
Zn1      1.03280    1.03280    0.96720   1.00
Zn1      0.96720    0.96720    0.96720   1.00
O2       0.97650    1.02350    1.08820   1.00
O2       0.97650    1.08820    1.02350   1.00
O2       0.91180    1.02350    1.02350   1.00
O2       1.02350    0.97650    1.08820   1.00
O2       1.08820    0.97650    1.02350   1.00
O2       1.02350    0.91180    1.02350   1.00
O2       1.02350    1.08820    0.97650   1.00
O2       1.08820    1.02350    0.97650   1.00
O2       1.02350    1.02350    0.91180   1.00
O2       0.91180    0.97650    0.97650   1.00
O2       0.97650    0.91180    0.97650   1.00
O2       0.97650    0.97650    0.91180   1.00
C1       1.00000    1.00000    1.10520   1.00
C1       1.00000    1.10520    1.00000   1.00
C1       0.89480    1.00000    1.00000   1.00
C1       1.10520    1.00000    1.00000   1.00
C1       1.00000    0.89480    1.00000   1.00
C1       1.00000    1.00000    0.89480   1.00
O1       0.50000    0.50000    1.00000   1.00
Zn1      0.46720    0.53280    1.03280   1.00
Zn1      0.53280    0.46720    1.03280   1.00
Zn1      0.53280    0.53280    0.96720   1.00
Zn1      0.46720    0.46720    0.96720   1.00
O2       0.47650    0.52350    1.08820   1.00
O2       0.47650    0.58820    1.02350   1.00
O2       0.41180    0.52350    1.02350   1.00
O2       0.52350    0.47650    1.08820   1.00
O2       0.58820    0.47650    1.02350   1.00
O2       0.52350    0.41180    1.02350   1.00
O2       0.52350    0.58820    0.97650   1.00
O2       0.58820    0.52350    0.97650   1.00
O2       0.52350    0.52350    0.91180   1.00
O2       0.41180    0.47650    0.97650   1.00
O2       0.47650    0.41180    0.97650   1.00
O2       0.47650    0.47650    0.91180   1.00
C1       0.50000    0.50000    1.10520   1.00
C1       0.50000    0.60520    1.00000   1.00
C1       0.39480    0.50000    1.00000   1.00
C1       0.60520    0.50000    1.00000   1.00
C1       0.50000    0.39480    1.00000   1.00
C1       0.50000    0.50000    0.89480   1.00
O1       0.50000    1.00000    0.50000   1.00
Zn1      0.46720    1.03280    0.53280   1.00
Zn1      0.53280    0.96720    0.53280   1.00
Zn1      0.53280    1.03280    0.46720   1.00
Zn1      0.46720    0.96720    0.46720   1.00
O2       0.47650    1.02350    0.58820   1.00
O2       0.47650    1.08820    0.52350   1.00
O2       0.41180    1.02350    0.52350   1.00
O2       0.52350    0.97650    0.58820   1.00
O2       0.58820    0.97650    0.52350   1.00
O2       0.52350    0.91180    0.52350   1.00
O2       0.52350    1.08820    0.47650   1.00
O2       0.58820    1.02350    0.47650   1.00
O2       0.52350    1.02350    0.41180   1.00
O2       0.41180    0.97650    0.47650   1.00
O2       0.47650    0.91180    0.47650   1.00
O2       0.47650    0.97650    0.41180   1.00
C1       0.50000    1.00000    0.60520   1.00
C1       0.50000    1.10520    0.50000   1.00
C1       0.39480    1.00000    0.50000   1.00
C1       0.60520    1.00000    0.50000   1.00
C1       0.50000    0.89480    0.50000   1.00
C1       0.50000    1.00000    0.39480   1.00
O1       1.00000    0.50000    0.50000   1.00
Zn1      0.96720    0.53280    0.53280   1.00
Zn1      1.03280    0.46720    0.53280   1.00
Zn1      1.03280    0.53280    0.46720   1.00
Zn1      0.96720    0.46720    0.46720   1.00
O2       0.97650    0.52350    0.58820   1.00
O2       0.97650    0.58820    0.52350   1.00
O2       0.91180    0.52350    0.52350   1.00
O2       1.02350    0.47650    0.58820   1.00
O2       1.08820    0.47650    0.52350   1.00
O2       1.02350    0.41180    0.52350   1.00
O2       1.02350    0.58820    0.47650   1.00
O2       1.08820    0.52350    0.47650   1.00
O2       1.02350    0.52350    0.41180   1.00
O2       0.91180    0.47650    0.47650   1.00
O2       0.97650    0.41180    0.47650   1.00
O2       0.97650    0.47650    0.41180   1.00
C1       1.00000    0.50000    0.60520   1.00
C1       1.00000    0.60520    0.50000   1.00
C1       0.89480    0.50000    0.50000   1.00
C1       1.10520    0.50000    0.50000   1.00
C1       1.00000    0.39480    0.50000   1.00
C1       1.00000    0.50000    0.39480   1.00
O1       0.50000    0.50000    0.50000   1.00
Zn1      0.53280    0.46720    0.46720   1.00
Zn1      0.46720    0.53280    0.46720   1.00
Zn1      0.46720    0.46720    0.53280   1.00
Zn1      0.53280    0.53280    0.53280   1.00
O2       0.52350    0.47650    0.41180   1.00
O2       0.52350    0.41180    0.47650   1.00
O2       0.58820    0.47650    0.47650   1.00
O2       0.47650    0.52350    0.41180   1.00
O2       0.41180    0.52350    0.47650   1.00
O2       0.47650    0.58820    0.47650   1.00
O2       0.47650    0.41180    0.52350   1.00
O2       0.41180    0.47650    0.52350   1.00
O2       0.47650    0.47650    0.58820   1.00
O2       0.58820    0.52350    0.52350   1.00
O2       0.52350    0.58820    0.52350   1.00
O2       0.52350    0.52350    0.58820   1.00
C1       0.50000    0.50000    0.39480   1.00
C1       0.50000    0.39480    0.50000   1.00
C1       0.60520    0.50000    0.50000   1.00
C1       0.39480    0.50000    0.50000   1.00
C1       0.50000    0.60520    0.50000   1.00
C1       0.50000    0.50000    0.60520   1.00
O1       1.00000    1.00000    0.50000   1.00
Zn1      1.03280    0.96720    0.46720   1.00
Zn1      0.96720    1.03280    0.46720   1.00
Zn1      0.96720    0.96720    0.53280   1.00
Zn1      1.03280    1.03280    0.53280   1.00
O2       1.02350    0.97650    0.41180   1.00
O2       1.02350    0.91180    0.47650   1.00
O2       1.08820    0.97650    0.47650   1.00
O2       0.97650    1.02350    0.41180   1.00
O2       0.91180    1.02350    0.47650   1.00
O2       0.97650    1.08820    0.47650   1.00
O2       0.97650    0.91180    0.52350   1.00
O2       0.91180    0.97650    0.52350   1.00
O2       0.97650    0.97650    0.58820   1.00
O2       1.08820    1.02350    0.52350   1.00
O2       1.02350    1.08820    0.52350   1.00
O2       1.02350    1.02350    0.58820   1.00
C1       1.00000    1.00000    0.39480   1.00
C1       1.00000    0.89480    0.50000   1.00
C1       1.10520    1.00000    0.50000   1.00
C1       0.89480    1.00000    0.50000   1.00
C1       1.00000    1.10520    0.50000   1.00
C1       1.00000    1.00000    0.60520   1.00
O1       1.00000    0.50000    1.00000   1.00
Zn1      1.03280    0.46720    0.96720   1.00
Zn1      0.96720    0.53280    0.96720   1.00
Zn1      0.96720    0.46720    1.03280   1.00
Zn1      1.03280    0.53280    1.03280   1.00
O2       1.02350    0.47650    0.91180   1.00
O2       1.02350    0.41180    0.97650   1.00
O2       1.08820    0.47650    0.97650   1.00
O2       0.97650    0.52350    0.91180   1.00
O2       0.91180    0.52350    0.97650   1.00
O2       0.97650    0.58820    0.97650   1.00
O2       0.97650    0.41180    1.02350   1.00
O2       0.91180    0.47650    1.02350   1.00
O2       0.97650    0.47650    1.08820   1.00
O2       1.08820    0.52350    1.02350   1.00
O2       1.02350    0.58820    1.02350   1.00
O2       1.02350    0.52350    1.08820   1.00
C1       1.00000    0.50000    0.89480   1.00
C1       1.00000    0.39480    1.00000   1.00
C1       1.10520    0.50000    1.00000   1.00
C1       0.89480    0.50000    1.00000   1.00
C1       1.00000    0.60520    1.00000   1.00
C1       1.00000    0.50000    1.10520   1.00
O1       0.50000    1.00000    1.00000   1.00
Zn1      0.53280    0.96720    0.96720   1.00
Zn1      0.46720    1.03280    0.96720   1.00
Zn1      0.46720    0.96720    1.03280   1.00
Zn1      0.53280    1.03280    1.03280   1.00
O2       0.52350    0.97650    0.91180   1.00
O2       0.52350    0.91180    0.97650   1.00
O2       0.58820    0.97650    0.97650   1.00
O2       0.47650    1.02350    0.91180   1.00
O2       0.41180    1.02350    0.97650   1.00
O2       0.47650    1.08820    0.97650   1.00
O2       0.47650    0.91180    1.02350   1.00
O2       0.41180    0.97650    1.02350   1.00
O2       0.47650    0.97650    1.08820   1.00
O2       0.58820    1.02350    1.02350   1.00
O2       0.52350    1.08820    1.02350   1.00
O2       0.52350    1.02350    1.08820   1.00
C1       0.50000    1.00000    0.89480   1.00
C1       0.50000    0.89480    1.00000   1.00
C1       0.60520    1.00000    1.00000   1.00
C1       0.39480    1.00000    1.00000   1.00
C1       0.50000    1.10520    1.00000   1.00
C1       0.50000    1.00000    1.10520   1.00
C4       0.75024    0.75030    0.97915   1.00
C4       0.74976    0.74970    1.02085   1.00
C3       0.78371    0.73942    0.95751   1.00
C3       0.76797    0.71966    1.04252   1.00
C3       0.71682    0.76104    0.95738   1.00
C3       0.73167    0.77980    1.04259   1.00
C2       0.75012    0.74990    0.89482   1.00
C2       0.75012    0.74990    1.10518   1.00
C3a      0.78380    0.73918    0.91599   1.00
C3       0.76809    0.71982    1.08382   1.00
C3       0.71683    0.76082    0.91611   1.00
C3a      0.73173    0.78007    1.08403   1.00
H1       0.81005    0.73134    0.97294   1.00
H1       0.78194    0.69563    1.02750   1.00
C5       0.82005    0.72760    0.89410   1.00
H1       0.78232    0.69625    1.09933   1.00
H1       0.69056    0.76894    0.90056   1.00
C5       0.71190    0.81296    1.10535   1.00
H1       0.71828    0.80408    1.02747   1.00
H1       0.69013    0.76894    0.97230   1.00
H2       0.68024    0.81221    1.09837   1.00
H2       0.71470    0.80941    1.13747   1.00
N1       0.72872    0.85050    1.09395   1.00
C6       0.72771    0.86653    1.05810   1.00
C6       0.74772    0.87551    1.11757   1.00
C6       0.74644    0.90215    1.05873   1.00
C6       0.75917    0.90785    1.09656   1.00
H3       0.71417    0.85327    1.03281   1.00
H3       0.75310    0.87055    1.14831   1.00
H3       0.75034    0.92180    1.03436   1.00
H3       0.77500    0.93280    1.10758   1.00
H2       0.81392    0.72877    0.86228   1.00
H2       0.84438    0.74819    0.90001   1.00
N1       0.83214    0.68831    0.90523   1.00
C6       0.83517    0.65503    0.88078   1.00
C6       0.84363    0.67531    0.94285   1.00
C6       0.84777    0.62371    0.90277   1.00
C6       0.85296    0.63617    0.94091   1.00
H3       0.82849    0.65453    0.84992   1.00
H3       0.84445    0.69337    0.96876   1.00
H3       0.85267    0.59445    0.89205   1.00
H3       0.86255    0.61828    0.96505   1.00
C4       0.75030    0.97915    0.75024   1.00
C4       0.74970    1.02085    0.74976   1.00
C3       0.73942    0.95751    0.78371   1.00
C3       0.71966    1.04252    0.76797   1.00
C3       0.76104    0.95738    0.71682   1.00
C3       0.77980    1.04259    0.73167   1.00
C2       0.74990    0.89482    0.75012   1.00
C2       0.74990    1.10518    0.75012   1.00
C3a      0.73918    0.91599    0.78380   1.00
C3       0.71982    1.08382    0.76809   1.00
C3       0.76082    0.91611    0.71683   1.00
C3a      0.78007    1.08403    0.73173   1.00
H1       0.73134    0.97294    0.81005   1.00
H1       0.69563    1.02750    0.78194   1.00
C5       0.72760    0.89410    0.82005   1.00
H1       0.69625    1.09933    0.78232   1.00
H1       0.76894    0.90056    0.69056   1.00
C5       0.81296    1.10535    0.71190   1.00
H1       0.80408    1.02747    0.71828   1.00
H1       0.76894    0.97230    0.69013   1.00
H2       0.81221    1.09837    0.68024   1.00
H2       0.80941    1.13747    0.71470   1.00
N1       0.85050    1.09395    0.72872   1.00
C6       0.86653    1.05810    0.72771   1.00
C6       0.87551    1.11757    0.74772   1.00
C6       0.90215    1.05873    0.74644   1.00
C6       0.90785    1.09656    0.75917   1.00
H3       0.85327    1.03281    0.71417   1.00
H3       0.87055    1.14831    0.75310   1.00
H3       0.92180    1.03436    0.75034   1.00
H3       0.93280    1.10758    0.77500   1.00
H2       0.72877    0.86228    0.81392   1.00
H2       0.74819    0.90001    0.84438   1.00
N1       0.68831    0.90523    0.83214   1.00
C6       0.65503    0.88078    0.83517   1.00
C6       0.67531    0.94285    0.84363   1.00
C6       0.62371    0.90277    0.84777   1.00
C6       0.63617    0.94091    0.85296   1.00
H3       0.65453    0.84992    0.82849   1.00
H3       0.69337    0.96876    0.84445   1.00
H3       0.59445    0.89205    0.85267   1.00
H3       0.61828    0.96505    0.86255   1.00
C4       0.52085    0.75024    0.74970   1.00
C4       0.47915    0.74976    0.75030   1.00
C3       0.54249    0.78371    0.76058   1.00
C3       0.45748    0.76797    0.78034   1.00
C3       0.54262    0.71682    0.73896   1.00
C3       0.45741    0.73167    0.72020   1.00
C2       0.60518    0.75012    0.75010   1.00
C2       0.39482    0.75012    0.75010   1.00
C3a      0.58401    0.78380    0.76082   1.00
C3       0.41618    0.76809    0.78018   1.00
C3       0.58389    0.71683    0.73918   1.00
C3a      0.41597    0.73173    0.71993   1.00
H1       0.52706    0.81005    0.76866   1.00
H1       0.47250    0.78194    0.80437   1.00
C5       0.60590    0.82005    0.77240   1.00
H1       0.40067    0.78232    0.80375   1.00
H1       0.59944    0.69056    0.73106   1.00
C5       0.39465    0.71190    0.68704   1.00
H1       0.47253    0.71828    0.69592   1.00
H1       0.52770    0.69013    0.73106   1.00
H2       0.40163    0.68024    0.68779   1.00
H2       0.36253    0.71470    0.69059   1.00
N1       0.40605    0.72872    0.64950   1.00
C6       0.44190    0.72771    0.63347   1.00
C6       0.38243    0.74772    0.62449   1.00
C6       0.44127    0.74644    0.59785   1.00
C6       0.40344    0.75917    0.59215   1.00
H3       0.46719    0.71417    0.64673   1.00
H3       0.35169    0.75310    0.62945   1.00
H3       0.46564    0.75034    0.57820   1.00
H3       0.39242    0.77500    0.56720   1.00
H2       0.63772    0.81392    0.77123   1.00
H2       0.59999    0.84438    0.75181   1.00
N1       0.59477    0.83214    0.81169   1.00
C6       0.61922    0.83517    0.84497   1.00
C6       0.55715    0.84363    0.82469   1.00
C6       0.59723    0.84777    0.87629   1.00
C6       0.55909    0.85296    0.86383   1.00
H3       0.65008    0.82849    0.84547   1.00
H3       0.53124    0.84445    0.80663   1.00
H3       0.60795    0.85267    0.90555   1.00
H3       0.53495    0.86255    0.88172   1.00
C4       0.97915    0.75024    0.75030   1.00
C4       1.02085    0.74976    0.74970   1.00
C3       0.95751    0.78371    0.73942   1.00
C3       1.04252    0.76797    0.71966   1.00
C3       0.95738    0.71682    0.76104   1.00
C3       1.04259    0.73167    0.77980   1.00
C2       0.89482    0.75012    0.74990   1.00
C2       1.10518    0.75012    0.74990   1.00
C3a      0.91599    0.78380    0.73918   1.00
C3       1.08382    0.76809    0.71982   1.00
C3       0.91611    0.71683    0.76082   1.00
C3a      1.08403    0.73173    0.78007   1.00
H1       0.97294    0.81005    0.73134   1.00
H1       1.02750    0.78194    0.69563   1.00
C5       0.89410    0.82005    0.72760   1.00
H1       1.09933    0.78232    0.69625   1.00
H1       0.90056    0.69056    0.76894   1.00
C5       1.10535    0.71190    0.81296   1.00
H1       1.02747    0.71828    0.80408   1.00
H1       0.97230    0.69013    0.76894   1.00
H2       1.09837    0.68024    0.81221   1.00
H2       1.13747    0.71470    0.80941   1.00
N1       1.09395    0.72872    0.85050   1.00
C6       1.05810    0.72771    0.86653   1.00
C6       1.11757    0.74772    0.87551   1.00
C6       1.05873    0.74644    0.90215   1.00
C6       1.09656    0.75917    0.90785   1.00
H3       1.03281    0.71417    0.85327   1.00
H3       1.14831    0.75310    0.87055   1.00
H3       1.03436    0.75034    0.92180   1.00
H3       1.10758    0.77500    0.93280   1.00
H2       0.86228    0.81392    0.72877   1.00
H2       0.90001    0.84438    0.74819   1.00
N1       0.90523    0.83214    0.68831   1.00
C6       0.88078    0.83517    0.65503   1.00
C6       0.94285    0.84363    0.67531   1.00
C6       0.90277    0.84777    0.62371   1.00
C6       0.94091    0.85296    0.63617   1.00
H3       0.84992    0.82849    0.65453   1.00
H3       0.96876    0.84445    0.69337   1.00
H3       0.89205    0.85267    0.59445   1.00
H3       0.96505    0.86255    0.61828   1.00
C4       0.74970    0.52085    0.75024   1.00
C4       0.75030    0.47915    0.74976   1.00
C3       0.76058    0.54249    0.78371   1.00
C3       0.78034    0.45748    0.76797   1.00
C3       0.73896    0.54262    0.71682   1.00
C3       0.72020    0.45741    0.73167   1.00
C2       0.75010    0.60518    0.75012   1.00
C2       0.75010    0.39482    0.75012   1.00
C3a      0.76082    0.58401    0.78380   1.00
C3       0.78018    0.41618    0.76809   1.00
C3       0.73918    0.58389    0.71683   1.00
C3a      0.71993    0.41597    0.73173   1.00
H1       0.76866    0.52706    0.81005   1.00
H1       0.80437    0.47250    0.78194   1.00
C5       0.77240    0.60590    0.82005   1.00
H1       0.80375    0.40067    0.78232   1.00
H1       0.73106    0.59944    0.69056   1.00
C5       0.68704    0.39465    0.71190   1.00
H1       0.69592    0.47253    0.71828   1.00
H1       0.73106    0.52770    0.69013   1.00
H2       0.68779    0.40163    0.68024   1.00
H2       0.69059    0.36253    0.71470   1.00
N1       0.64950    0.40605    0.72872   1.00
C6       0.63347    0.44190    0.72771   1.00
C6       0.62449    0.38243    0.74772   1.00
C6       0.59785    0.44127    0.74644   1.00
C6       0.59215    0.40344    0.75917   1.00
H3       0.64673    0.46719    0.71417   1.00
H3       0.62945    0.35169    0.75310   1.00
H3       0.57820    0.46564    0.75034   1.00
H3       0.56720    0.39242    0.77500   1.00
H2       0.77123    0.63772    0.81392   1.00
H2       0.75181    0.59999    0.84438   1.00
N1       0.81169    0.59477    0.83214   1.00
C6       0.84497    0.61922    0.83517   1.00
C6       0.82469    0.55715    0.84363   1.00
C6       0.87629    0.59723    0.84777   1.00
C6       0.86383    0.55909    0.85296   1.00
H3       0.84547    0.65008    0.82849   1.00
H3       0.80663    0.53124    0.84445   1.00
H3       0.90555    0.60795    0.85267   1.00
H3       0.88172    0.53495    0.86255   1.00
C4       0.75024    0.74970    0.52085   1.00
C4       0.74976    0.75030    0.47915   1.00
C3       0.78371    0.76058    0.54249   1.00
C3       0.76797    0.78034    0.45748   1.00
C3       0.71682    0.73896    0.54262   1.00
C3       0.73167    0.72020    0.45741   1.00
C2       0.75012    0.75010    0.60518   1.00
C2       0.75012    0.75010    0.39482   1.00
C3a      0.78380    0.76082    0.58401   1.00
C3       0.76809    0.78018    0.41618   1.00
C3       0.71683    0.73918    0.58389   1.00
C3a      0.73173    0.71993    0.41597   1.00
H1       0.81005    0.76866    0.52706   1.00
H1       0.78194    0.80437    0.47250   1.00
C5       0.82005    0.77240    0.60590   1.00
H1       0.78232    0.80375    0.40067   1.00
H1       0.69056    0.73106    0.59944   1.00
C5       0.71190    0.68704    0.39465   1.00
H1       0.71828    0.69592    0.47253   1.00
H1       0.69013    0.73106    0.52770   1.00
H2       0.68024    0.68779    0.40163   1.00
H2       0.71470    0.69059    0.36253   1.00
N1       0.72872    0.64950    0.40605   1.00
C6       0.72771    0.63347    0.44190   1.00
C6       0.74772    0.62449    0.38243   1.00
C6       0.74644    0.59785    0.44127   1.00
C6       0.75917    0.59215    0.40344   1.00
H3       0.71417    0.64673    0.46719   1.00
H3       0.75310    0.62945    0.35169   1.00
H3       0.75034    0.57820    0.46564   1.00
H3       0.77500    0.56720    0.39242   1.00
H2       0.81392    0.77123    0.63772   1.00
H2       0.84438    0.75181    0.59999   1.00
N1       0.83214    0.81169    0.59477   1.00
C6       0.83517    0.84497    0.61922   1.00
C6       0.84363    0.82469    0.55715   1.00
C6       0.84777    0.87629    0.59723   1.00
C6       0.85296    0.86383    0.55909   1.00
H3       0.82849    0.84547    0.65008   1.00
H3       0.84445    0.80663    0.53124   1.00
H3       0.85267    0.90555    0.60795   1.00
H3       0.86255    0.88172    0.53495   1.00
C4       0.25024    0.25030    0.97915   1.00
C4       0.24976    0.24970    1.02085   1.00
C3       0.28371    0.23942    0.95751   1.00
C3       0.26797    0.21966    1.04252   1.00
C3       0.21682    0.26104    0.95738   1.00
C3       0.23167    0.27980    1.04259   1.00
C2       0.25012    0.24990    0.89482   1.00
C2       0.25012    0.24990    1.10518   1.00
C3a      0.28380    0.23918    0.91599   1.00
C3       0.26809    0.21982    1.08382   1.00
C3       0.21683    0.26082    0.91611   1.00
C3a      0.23173    0.28007    1.08403   1.00
H1       0.31005    0.23134    0.97294   1.00
H1       0.28194    0.19563    1.02750   1.00
C5       0.32005    0.22760    0.89410   1.00
H1       0.28232    0.19625    1.09933   1.00
H1       0.19056    0.26894    0.90056   1.00
C5       0.21190    0.31296    1.10535   1.00
H1       0.21828    0.30408    1.02747   1.00
H1       0.19013    0.26894    0.97230   1.00
H2       0.18024    0.31221    1.09837   1.00
H2       0.21470    0.30941    1.13747   1.00
N1       0.22872    0.35050    1.09395   1.00
C6       0.22771    0.36653    1.05810   1.00
C6       0.24772    0.37551    1.11757   1.00
C6       0.24644    0.40215    1.05873   1.00
C6       0.25917    0.40785    1.09656   1.00
H3       0.21417    0.35327    1.03281   1.00
H3       0.25310    0.37055    1.14831   1.00
H3       0.25034    0.42180    1.03436   1.00
H3       0.27500    0.43280    1.10758   1.00
H2       0.31392    0.22877    0.86228   1.00
H2       0.34438    0.24819    0.90001   1.00
N1       0.33214    0.18831    0.90523   1.00
C6       0.33517    0.15503    0.88078   1.00
C6       0.34363    0.17531    0.94285   1.00
C6       0.34777    0.12371    0.90277   1.00
C6       0.35296    0.13617    0.94091   1.00
H3       0.32849    0.15453    0.84992   1.00
H3       0.34445    0.19337    0.96876   1.00
H3       0.35267    0.09445    0.89205   1.00
H3       0.36255    0.11828    0.96505   1.00
C4       0.25030    0.47915    0.75024   1.00
C4       0.24970    0.52085    0.74976   1.00
C3       0.23942    0.45751    0.78371   1.00
C3       0.21966    0.54252    0.76797   1.00
C3       0.26104    0.45738    0.71682   1.00
C3       0.27980    0.54259    0.73167   1.00
C2       0.24990    0.39482    0.75012   1.00
C2       0.24990    0.60518    0.75012   1.00
C3a      0.23918    0.41599    0.78380   1.00
C3       0.21982    0.58382    0.76809   1.00
C3       0.26082    0.41611    0.71683   1.00
C3a      0.28007    0.58403    0.73173   1.00
H1       0.23134    0.47294    0.81005   1.00
H1       0.19563    0.52750    0.78194   1.00
C5       0.22760    0.39410    0.82005   1.00
H1       0.19625    0.59933    0.78232   1.00
H1       0.26894    0.40056    0.69056   1.00
C5       0.31296    0.60535    0.71190   1.00
H1       0.30408    0.52747    0.71828   1.00
H1       0.26894    0.47230    0.69013   1.00
H2       0.31221    0.59837    0.68024   1.00
H2       0.30941    0.63747    0.71470   1.00
N1       0.35050    0.59395    0.72872   1.00
C6       0.36653    0.55810    0.72771   1.00
C6       0.37551    0.61757    0.74772   1.00
C6       0.40215    0.55873    0.74644   1.00
C6       0.40785    0.59656    0.75917   1.00
H3       0.35327    0.53281    0.71417   1.00
H3       0.37055    0.64831    0.75310   1.00
H3       0.42180    0.53436    0.75034   1.00
H3       0.43280    0.60758    0.77500   1.00
H2       0.22877    0.36228    0.81392   1.00
H2       0.24819    0.40001    0.84438   1.00
N1       0.18831    0.40523    0.83214   1.00
C6       0.15503    0.38078    0.83517   1.00
C6       0.17531    0.44285    0.84363   1.00
C6       0.12371    0.40277    0.84777   1.00
C6       0.13617    0.44091    0.85296   1.00
H3       0.15453    0.34992    0.82849   1.00
H3       0.19337    0.46876    0.84445   1.00
H3       0.09445    0.39205    0.85267   1.00
H3       0.11828    0.46505    0.86255   1.00
C4       0.02085    0.25024    0.74970   1.00
C4       -0.02085   0.24976    0.75030   1.00
C3       0.04249    0.28371    0.76058   1.00
C3       -0.04252   0.26797    0.78034   1.00
C3       0.04262    0.21682    0.73896   1.00
C3       -0.04259   0.23167    0.72020   1.00
C2       0.10518    0.25012    0.75010   1.00
C2       -0.10518   0.25012    0.75010   1.00
C3a      0.08401    0.28380    0.76082   1.00
C3       -0.08382   0.26809    0.78018   1.00
C3       0.08389    0.21683    0.73918   1.00
C3a      -0.08403   0.23173    0.71993   1.00
H1       0.02706    0.31005    0.76866   1.00
H1       -0.02750   0.28194    0.80437   1.00
C5       0.10590    0.32005    0.77240   1.00
H1       -0.09933   0.28232    0.80375   1.00
H1       0.09944    0.19056    0.73106   1.00
C5       -0.10535   0.21190    0.68704   1.00
H1       -0.02747   0.21828    0.69592   1.00
H1       0.02770    0.19013    0.73106   1.00
H2       -0.09837   0.18024    0.68779   1.00
H2       -0.13747   0.21470    0.69059   1.00
N1       -0.09395   0.22872    0.64950   1.00
C6       -0.05810   0.22771    0.63347   1.00
C6       -0.11757   0.24772    0.62449   1.00
C6       -0.05873   0.24644    0.59785   1.00
C6       -0.09656   0.25917    0.59215   1.00
H3       -0.03281   0.21417    0.64673   1.00
H3       -0.14831   0.25310    0.62945   1.00
H3       -0.03436   0.25034    0.57820   1.00
H3       -0.10758   0.27500    0.56720   1.00
H2       0.13772    0.31392    0.77123   1.00
H2       0.09999    0.34438    0.75181   1.00
N1       0.09477    0.33214    0.81169   1.00
C6       0.11922    0.33517    0.84497   1.00
C6       0.05715    0.34363    0.82469   1.00
C6       0.09723    0.34777    0.87629   1.00
C6       0.05909    0.35296    0.86383   1.00
H3       0.15008    0.32849    0.84547   1.00
H3       0.03124    0.34445    0.80663   1.00
H3       0.10795    0.35267    0.90555   1.00
H3       0.03495    0.36255    0.88172   1.00
C4       0.47915    0.25024    0.75030   1.00
C4       0.52085    0.24976    0.74970   1.00
C3       0.45751    0.28371    0.73942   1.00
C3       0.54252    0.26797    0.71966   1.00
C3       0.45738    0.21682    0.76104   1.00
C3       0.54259    0.23167    0.77980   1.00
C2       0.39482    0.25012    0.74990   1.00
C2       0.60518    0.25012    0.74990   1.00
C3a      0.41599    0.28380    0.73918   1.00
C3       0.58382    0.26809    0.71982   1.00
C3       0.41611    0.21683    0.76082   1.00
C3a      0.58403    0.23173    0.78007   1.00
H1       0.47294    0.31005    0.73134   1.00
H1       0.52750    0.28194    0.69563   1.00
C5       0.39410    0.32005    0.72760   1.00
H1       0.59933    0.28232    0.69625   1.00
H1       0.40056    0.19056    0.76894   1.00
C5       0.60535    0.21190    0.81296   1.00
H1       0.52747    0.21828    0.80408   1.00
H1       0.47230    0.19013    0.76894   1.00
H2       0.59837    0.18024    0.81221   1.00
H2       0.63747    0.21470    0.80941   1.00
N1       0.59395    0.22872    0.85050   1.00
C6       0.55810    0.22771    0.86653   1.00
C6       0.61757    0.24772    0.87551   1.00
C6       0.55873    0.24644    0.90215   1.00
C6       0.59656    0.25917    0.90785   1.00
H3       0.53281    0.21417    0.85327   1.00
H3       0.64831    0.25310    0.87055   1.00
H3       0.53436    0.25034    0.92180   1.00
H3       0.60758    0.27500    0.93280   1.00
H2       0.36228    0.31392    0.72877   1.00
H2       0.40001    0.34438    0.74819   1.00
N1       0.40523    0.33214    0.68831   1.00
C6       0.38078    0.33517    0.65503   1.00
C6       0.44285    0.34363    0.67531   1.00
C6       0.40277    0.34777    0.62371   1.00
C6       0.44091    0.35296    0.63617   1.00
H3       0.34992    0.32849    0.65453   1.00
H3       0.46876    0.34445    0.69337   1.00
H3       0.39205    0.35267    0.59445   1.00
H3       0.46505    0.36255    0.61828   1.00
C4       0.24970    0.02085    0.75024   1.00
C4       0.25030    -0.02085   0.74976   1.00
C3       0.26058    0.04249    0.78371   1.00
C3       0.28034    -0.04252   0.76797   1.00
C3       0.23896    0.04262    0.71682   1.00
C3       0.22020    -0.04259   0.73167   1.00
C2       0.25010    0.10518    0.75012   1.00
C2       0.25010    -0.10518   0.75012   1.00
C3a      0.26082    0.08401    0.78380   1.00
C3       0.28018    -0.08382   0.76809   1.00
C3       0.23918    0.08389    0.71683   1.00
C3a      0.21993    -0.08403   0.73173   1.00
H1       0.26866    0.02706    0.81005   1.00
H1       0.30437    -0.02750   0.78194   1.00
C5       0.27240    0.10590    0.82005   1.00
H1       0.30375    -0.09933   0.78232   1.00
H1       0.23106    0.09944    0.69056   1.00
C5       0.18704    -0.10535   0.71190   1.00
H1       0.19592    -0.02747   0.71828   1.00
H1       0.23106    0.02770    0.69013   1.00
H2       0.18779    -0.09837   0.68024   1.00
H2       0.19059    -0.13747   0.71470   1.00
N1       0.14950    -0.09395   0.72872   1.00
C6       0.13347    -0.05810   0.72771   1.00
C6       0.12449    -0.11757   0.74772   1.00
C6       0.09785    -0.05873   0.74644   1.00
C6       0.09215    -0.09656   0.75917   1.00
H3       0.14673    -0.03281   0.71417   1.00
H3       0.12945    -0.14831   0.75310   1.00
H3       0.07820    -0.03436   0.75034   1.00
H3       0.06720    -0.10758   0.77500   1.00
H2       0.27123    0.13772    0.81392   1.00
H2       0.25181    0.09999    0.84438   1.00
N1       0.31169    0.09477    0.83214   1.00
C6       0.34497    0.11922    0.83517   1.00
C6       0.32469    0.05715    0.84363   1.00
C6       0.37629    0.09723    0.84777   1.00
C6       0.36383    0.05909    0.85296   1.00
H3       0.34547    0.15008    0.82849   1.00
H3       0.30663    0.03124    0.84445   1.00
H3       0.40555    0.10795    0.85267   1.00
H3       0.38172    0.03495    0.86255   1.00
C4       0.25024    0.24970    0.52085   1.00
C4       0.24976    0.25030    0.47915   1.00
C3       0.28371    0.26058    0.54249   1.00
C3       0.26797    0.28034    0.45748   1.00
C3       0.21682    0.23896    0.54262   1.00
C3       0.23167    0.22020    0.45741   1.00
C2       0.25012    0.25010    0.60518   1.00
C2       0.25012    0.25010    0.39482   1.00
C3a      0.28380    0.26082    0.58401   1.00
C3       0.26809    0.28018    0.41618   1.00
C3       0.21683    0.23918    0.58389   1.00
C3a      0.23173    0.21993    0.41597   1.00
H1       0.31005    0.26866    0.52706   1.00
H1       0.28194    0.30437    0.47250   1.00
C5       0.32005    0.27240    0.60590   1.00
H1       0.28232    0.30375    0.40067   1.00
H1       0.19056    0.23106    0.59944   1.00
C5       0.21190    0.18704    0.39465   1.00
H1       0.21828    0.19592    0.47253   1.00
H1       0.19013    0.23106    0.52770   1.00
H2       0.18024    0.18779    0.40163   1.00
H2       0.21470    0.19059    0.36253   1.00
N1       0.22872    0.14950    0.40605   1.00
C6       0.22771    0.13347    0.44190   1.00
C6       0.24772    0.12449    0.38243   1.00
C6       0.24644    0.09785    0.44127   1.00
C6       0.25917    0.09215    0.40344   1.00
H3       0.21417    0.14673    0.46719   1.00
H3       0.25310    0.12945    0.35169   1.00
H3       0.25034    0.07820    0.46564   1.00
H3       0.27500    0.06720    0.39242   1.00
H2       0.31392    0.27123    0.63772   1.00
H2       0.34438    0.25181    0.59999   1.00
N1       0.33214    0.31169    0.59477   1.00
C6       0.33517    0.34497    0.61922   1.00
C6       0.34363    0.32469    0.55715   1.00
C6       0.34777    0.37629    0.59723   1.00
C6       0.35296    0.36383    0.55909   1.00
H3       0.32849    0.34547    0.65008   1.00
H3       0.34445    0.30663    0.53124   1.00
H3       0.35267    0.40555    0.60795   1.00
H3       0.36255    0.38172    0.53495   1.00
C4       0.25024    0.75030    0.47915   1.00
C4       0.24976    0.74970    0.52085   1.00
C3       0.28371    0.73942    0.45751   1.00
C3       0.26797    0.71966    0.54252   1.00
C3       0.21682    0.76104    0.45738   1.00
C3       0.23167    0.77980    0.54259   1.00
C2       0.25012    0.74990    0.39482   1.00
C2       0.25012    0.74990    0.60518   1.00
C3a      0.28380    0.73918    0.41599   1.00
C3       0.26809    0.71982    0.58382   1.00
C3       0.21683    0.76082    0.41611   1.00
C3a      0.23173    0.78007    0.58403   1.00
H1       0.31005    0.73134    0.47294   1.00
H1       0.28194    0.69563    0.52750   1.00
C5       0.32005    0.72760    0.39410   1.00
H1       0.28232    0.69625    0.59933   1.00
H1       0.19056    0.76894    0.40056   1.00
C5       0.21190    0.81296    0.60535   1.00
H1       0.21828    0.80408    0.52747   1.00
H1       0.19013    0.76894    0.47230   1.00
H2       0.18024    0.81221    0.59837   1.00
H2       0.21470    0.80941    0.63747   1.00
N1       0.22872    0.85050    0.59395   1.00
C6       0.22771    0.86653    0.55810   1.00
C6       0.24772    0.87551    0.61757   1.00
C6       0.24644    0.90215    0.55873   1.00
C6       0.25917    0.90785    0.59656   1.00
H3       0.21417    0.85327    0.53281   1.00
H3       0.25310    0.87055    0.64831   1.00
H3       0.25034    0.92180    0.53436   1.00
H3       0.27500    0.93280    0.60758   1.00
H2       0.31392    0.72877    0.36228   1.00
H2       0.34438    0.74819    0.40001   1.00
N1       0.33214    0.68831    0.40523   1.00
C6       0.33517    0.65503    0.38078   1.00
C6       0.34363    0.67531    0.44285   1.00
C6       0.34777    0.62371    0.40277   1.00
C6       0.35296    0.63617    0.44091   1.00
H3       0.32849    0.65453    0.34992   1.00
H3       0.34445    0.69337    0.46876   1.00
H3       0.35267    0.59445    0.39205   1.00
H3       0.36255    0.61828    0.46505   1.00
C4       0.25030    0.97915    0.25024   1.00
C4       0.24970    1.02085    0.24976   1.00
C3       0.23942    0.95751    0.28371   1.00
C3       0.21966    1.04252    0.26797   1.00
C3       0.26104    0.95738    0.21682   1.00
C3       0.27980    1.04259    0.23167   1.00
C2       0.24990    0.89482    0.25012   1.00
C2       0.24990    1.10518    0.25012   1.00
C3a      0.23918    0.91599    0.28380   1.00
C3       0.21982    1.08382    0.26809   1.00
C3       0.26082    0.91611    0.21683   1.00
C3a      0.28007    1.08403    0.23173   1.00
H1       0.23134    0.97294    0.31005   1.00
H1       0.19563    1.02750    0.28194   1.00
C5       0.22760    0.89410    0.32005   1.00
H1       0.19625    1.09933    0.28232   1.00
H1       0.26894    0.90056    0.19056   1.00
C5       0.31296    1.10535    0.21190   1.00
H1       0.30408    1.02747    0.21828   1.00
H1       0.26894    0.97230    0.19013   1.00
H2       0.31221    1.09837    0.18024   1.00
H2       0.30941    1.13747    0.21470   1.00
N1       0.35050    1.09395    0.22872   1.00
C6       0.36653    1.05810    0.22771   1.00
C6       0.37551    1.11757    0.24772   1.00
C6       0.40215    1.05873    0.24644   1.00
C6       0.40785    1.09656    0.25917   1.00
H3       0.35327    1.03281    0.21417   1.00
H3       0.37055    1.14831    0.25310   1.00
H3       0.42180    1.03436    0.25034   1.00
H3       0.43280    1.10758    0.27500   1.00
H2       0.22877    0.86228    0.31392   1.00
H2       0.24819    0.90001    0.34438   1.00
N1       0.18831    0.90523    0.33214   1.00
C6       0.15503    0.88078    0.33517   1.00
C6       0.17531    0.94285    0.34363   1.00
C6       0.12371    0.90277    0.34777   1.00
C6       0.13617    0.94091    0.35296   1.00
H3       0.15453    0.84992    0.32849   1.00
H3       0.19337    0.96876    0.34445   1.00
H3       0.09445    0.89205    0.35267   1.00
H3       0.11828    0.96505    0.36255   1.00
C4       0.02085    0.75024    0.24970   1.00
C4       -0.02085   0.74976    0.25030   1.00
C3       0.04249    0.78371    0.26058   1.00
C3       -0.04252   0.76797    0.28034   1.00
C3       0.04262    0.71682    0.23896   1.00
C3       -0.04259   0.73167    0.22020   1.00
C2       0.10518    0.75012    0.25010   1.00
C2       -0.10518   0.75012    0.25010   1.00
C3a      0.08401    0.78380    0.26082   1.00
C3       -0.08382   0.76809    0.28018   1.00
C3       0.08389    0.71683    0.23918   1.00
C3a      -0.08403   0.73173    0.21993   1.00
H1       0.02706    0.81005    0.26866   1.00
H1       -0.02750   0.78194    0.30437   1.00
C5       0.10590    0.82005    0.27240   1.00
H1       -0.09933   0.78232    0.30375   1.00
H1       0.09944    0.69056    0.23106   1.00
C5       -0.10535   0.71190    0.18704   1.00
H1       -0.02747   0.71828    0.19592   1.00
H1       0.02770    0.69013    0.23106   1.00
H2       -0.09837   0.68024    0.18779   1.00
H2       -0.13747   0.71470    0.19059   1.00
N1       -0.09395   0.72872    0.14950   1.00
C6       -0.05810   0.72771    0.13347   1.00
C6       -0.11757   0.74772    0.12449   1.00
C6       -0.05873   0.74644    0.09785   1.00
C6       -0.09656   0.75917    0.09215   1.00
H3       -0.03281   0.71417    0.14673   1.00
H3       -0.14831   0.75310    0.12945   1.00
H3       -0.03436   0.75034    0.07820   1.00
H3       -0.10758   0.77500    0.06720   1.00
H2       0.13772    0.81392    0.27123   1.00
H2       0.09999    0.84438    0.25181   1.00
N1       0.09477    0.83214    0.31169   1.00
C6       0.11922    0.83517    0.34497   1.00
C6       0.05715    0.84363    0.32469   1.00
C6       0.09723    0.84777    0.37629   1.00
C6       0.05909    0.85296    0.36383   1.00
H3       0.15008    0.82849    0.34547   1.00
H3       0.03124    0.84445    0.30663   1.00
H3       0.10795    0.85267    0.40555   1.00
H3       0.03495    0.86255    0.38172   1.00
C4       0.47915    0.75024    0.25030   1.00
C4       0.52085    0.74976    0.24970   1.00
C3       0.45751    0.78371    0.23942   1.00
C3       0.54252    0.76797    0.21966   1.00
C3       0.45738    0.71682    0.26104   1.00
C3       0.54259    0.73167    0.27980   1.00
C2       0.39482    0.75012    0.24990   1.00
C2       0.60518    0.75012    0.24990   1.00
C3a      0.41599    0.78380    0.23918   1.00
C3       0.58382    0.76809    0.21982   1.00
C3       0.41611    0.71683    0.26082   1.00
C3a      0.58403    0.73173    0.28007   1.00
H1       0.47294    0.81005    0.23134   1.00
H1       0.52750    0.78194    0.19563   1.00
C5       0.39410    0.82005    0.22760   1.00
H1       0.59933    0.78232    0.19625   1.00
H1       0.40056    0.69056    0.26894   1.00
C5       0.60535    0.71190    0.31296   1.00
H1       0.52747    0.71828    0.30408   1.00
H1       0.47230    0.69013    0.26894   1.00
H2       0.59837    0.68024    0.31221   1.00
H2       0.63747    0.71470    0.30941   1.00
N1       0.59395    0.72872    0.35050   1.00
C6       0.55810    0.72771    0.36653   1.00
C6       0.61757    0.74772    0.37551   1.00
C6       0.55873    0.74644    0.40215   1.00
C6       0.59656    0.75917    0.40785   1.00
H3       0.53281    0.71417    0.35327   1.00
H3       0.64831    0.75310    0.37055   1.00
H3       0.53436    0.75034    0.42180   1.00
H3       0.60758    0.77500    0.43280   1.00
H2       0.36228    0.81392    0.22877   1.00
H2       0.40001    0.84438    0.24819   1.00
N1       0.40523    0.83214    0.18831   1.00
C6       0.38078    0.83517    0.15503   1.00
C6       0.44285    0.84363    0.17531   1.00
C6       0.40277    0.84777    0.12371   1.00
C6       0.44091    0.85296    0.13617   1.00
H3       0.34992    0.82849    0.15453   1.00
H3       0.46876    0.84445    0.19337   1.00
H3       0.39205    0.85267    0.09445   1.00
H3       0.46505    0.86255    0.11828   1.00
C4       0.24970    0.52085    0.25024   1.00
C4       0.25030    0.47915    0.24976   1.00
C3       0.26058    0.54249    0.28371   1.00
C3       0.28034    0.45748    0.26797   1.00
C3       0.23896    0.54262    0.21682   1.00
C3       0.22020    0.45741    0.23167   1.00
C2       0.25010    0.60518    0.25012   1.00
C2       0.25010    0.39482    0.25012   1.00
C3a      0.26082    0.58401    0.28380   1.00
C3       0.28018    0.41618    0.26809   1.00
C3       0.23918    0.58389    0.21683   1.00
C3a      0.21993    0.41597    0.23173   1.00
H1       0.26866    0.52706    0.31005   1.00
H1       0.30437    0.47250    0.28194   1.00
C5       0.27240    0.60590    0.32005   1.00
H1       0.30375    0.40067    0.28232   1.00
H1       0.23106    0.59944    0.19056   1.00
C5       0.18704    0.39465    0.21190   1.00
H1       0.19592    0.47253    0.21828   1.00
H1       0.23106    0.52770    0.19013   1.00
H2       0.18779    0.40163    0.18024   1.00
H2       0.19059    0.36253    0.21470   1.00
N1       0.14950    0.40605    0.22872   1.00
C6       0.13347    0.44190    0.22771   1.00
C6       0.12449    0.38243    0.24772   1.00
C6       0.09785    0.44127    0.24644   1.00
C6       0.09215    0.40344    0.25917   1.00
H3       0.14673    0.46719    0.21417   1.00
H3       0.12945    0.35169    0.25310   1.00
H3       0.07820    0.46564    0.25034   1.00
H3       0.06720    0.39242    0.27500   1.00
H2       0.27123    0.63772    0.31392   1.00
H2       0.25181    0.59999    0.34438   1.00
N1       0.31169    0.59477    0.33214   1.00
C6       0.34497    0.61922    0.33517   1.00
C6       0.32469    0.55715    0.34363   1.00
C6       0.37629    0.59723    0.34777   1.00
C6       0.36383    0.55909    0.35296   1.00
H3       0.34547    0.65008    0.32849   1.00
H3       0.30663    0.53124    0.34445   1.00
H3       0.40555    0.60795    0.35267   1.00
H3       0.38172    0.53495    0.36255   1.00
C4       0.25024    0.74970    0.02085   1.00
C4       0.24976    0.75030    -0.02085   1.00
C3       0.28371    0.76058    0.04249   1.00
C3       0.26797    0.78034    -0.04252   1.00
C3       0.21682    0.73896    0.04262   1.00
C3       0.23167    0.72020    -0.04259   1.00
C2       0.25012    0.75010    0.10518   1.00
C2       0.25012    0.75010    -0.10518   1.00
C3a      0.28380    0.76082    0.08401   1.00
C3       0.26809    0.78018    -0.08382   1.00
C3       0.21683    0.73918    0.08389   1.00
C3a      0.23173    0.71993    -0.08403   1.00
H1       0.31005    0.76866    0.02706   1.00
H1       0.28194    0.80437    -0.02750   1.00
C5       0.32005    0.77240    0.10590   1.00
H1       0.28232    0.80375    -0.09933   1.00
H1       0.19056    0.73106    0.09944   1.00
C5       0.21190    0.68704    -0.10535   1.00
H1       0.21828    0.69592    -0.02747   1.00
H1       0.19013    0.73106    0.02770   1.00
H2       0.18024    0.68779    -0.09837   1.00
H2       0.21470    0.69059    -0.13747   1.00
N1       0.22872    0.64950    -0.09395   1.00
C6       0.22771    0.63347    -0.05810   1.00
C6       0.24772    0.62449    -0.11757   1.00
C6       0.24644    0.59785    -0.05873   1.00
C6       0.25917    0.59215    -0.09656   1.00
H3       0.21417    0.64673    -0.03281   1.00
H3       0.25310    0.62945    -0.14831   1.00
H3       0.25034    0.57820    -0.03436   1.00
H3       0.27500    0.56720    -0.10758   1.00
H2       0.31392    0.77123    0.13772   1.00
H2       0.34438    0.75181    0.09999   1.00
N1       0.33214    0.81169    0.09477   1.00
C6       0.33517    0.84497    0.11922   1.00
C6       0.34363    0.82469    0.05715   1.00
C6       0.34777    0.87629    0.09723   1.00
C6       0.35296    0.86383    0.05909   1.00
H3       0.32849    0.84547    0.15008   1.00
H3       0.34445    0.80663    0.03124   1.00
H3       0.35267    0.90555    0.10795   1.00
H3       0.36255    0.88172    0.03495   1.00
C4       0.75024    0.25030    0.47915   1.00
C4       0.74976    0.24970    0.52085   1.00
C3       0.78371    0.23942    0.45751   1.00
C3       0.76797    0.21966    0.54252   1.00
C3       0.71682    0.26104    0.45738   1.00
C3       0.73167    0.27980    0.54259   1.00
C2       0.75012    0.24990    0.39482   1.00
C2       0.75012    0.24990    0.60518   1.00
C3a      0.78380    0.23918    0.41599   1.00
C3       0.76809    0.21982    0.58382   1.00
C3       0.71683    0.26082    0.41611   1.00
C3a      0.73173    0.28007    0.58403   1.00
H1       0.81005    0.23134    0.47294   1.00
H1       0.78194    0.19563    0.52750   1.00
C5       0.82005    0.22760    0.39410   1.00
H1       0.78232    0.19625    0.59933   1.00
H1       0.69056    0.26894    0.40056   1.00
C5       0.71190    0.31296    0.60535   1.00
H1       0.71828    0.30408    0.52747   1.00
H1       0.69013    0.26894    0.47230   1.00
H2       0.68024    0.31221    0.59837   1.00
H2       0.71470    0.30941    0.63747   1.00
N1       0.72872    0.35050    0.59395   1.00
C6       0.72771    0.36653    0.55810   1.00
C6       0.74772    0.37551    0.61757   1.00
C6       0.74644    0.40215    0.55873   1.00
C6       0.75917    0.40785    0.59656   1.00
H3       0.71417    0.35327    0.53281   1.00
H3       0.75310    0.37055    0.64831   1.00
H3       0.75034    0.42180    0.53436   1.00
H3       0.77500    0.43280    0.60758   1.00
H2       0.81392    0.22877    0.36228   1.00
H2       0.84438    0.24819    0.40001   1.00
N1       0.83214    0.18831    0.40523   1.00
C6       0.83517    0.15503    0.38078   1.00
C6       0.84363    0.17531    0.44285   1.00
C6       0.84777    0.12371    0.40277   1.00
C6       0.85296    0.13617    0.44091   1.00
H3       0.82849    0.15453    0.34992   1.00
H3       0.84445    0.19337    0.46876   1.00
H3       0.85267    0.09445    0.39205   1.00
H3       0.86255    0.11828    0.46505   1.00
C4       0.75030    0.47915    0.25024   1.00
C4       0.74970    0.52085    0.24976   1.00
C3       0.73942    0.45751    0.28371   1.00
C3       0.71966    0.54252    0.26797   1.00
C3       0.76104    0.45738    0.21682   1.00
C3       0.77980    0.54259    0.23167   1.00
C2       0.74990    0.39482    0.25012   1.00
C2       0.74990    0.60518    0.25012   1.00
C3a      0.73918    0.41599    0.28380   1.00
C3       0.71982    0.58382    0.26809   1.00
C3       0.76082    0.41611    0.21683   1.00
C3a      0.78007    0.58403    0.23173   1.00
H1       0.73134    0.47294    0.31005   1.00
H1       0.69563    0.52750    0.28194   1.00
C5       0.72760    0.39410    0.32005   1.00
H1       0.69625    0.59933    0.28232   1.00
H1       0.76894    0.40056    0.19056   1.00
C5       0.81296    0.60535    0.21190   1.00
H1       0.80408    0.52747    0.21828   1.00
H1       0.76894    0.47230    0.19013   1.00
H2       0.81221    0.59837    0.18024   1.00
H2       0.80941    0.63747    0.21470   1.00
N1       0.85050    0.59395    0.22872   1.00
C6       0.86653    0.55810    0.22771   1.00
C6       0.87551    0.61757    0.24772   1.00
C6       0.90215    0.55873    0.24644   1.00
C6       0.90785    0.59656    0.25917   1.00
H3       0.85327    0.53281    0.21417   1.00
H3       0.87055    0.64831    0.25310   1.00
H3       0.92180    0.53436    0.25034   1.00
H3       0.93280    0.60758    0.27500   1.00
H2       0.72877    0.36228    0.31392   1.00
H2       0.74819    0.40001    0.34438   1.00
N1       0.68831    0.40523    0.33214   1.00
C6       0.65503    0.38078    0.33517   1.00
C6       0.67531    0.44285    0.34363   1.00
C6       0.62371    0.40277    0.34777   1.00
C6       0.63617    0.44091    0.35296   1.00
H3       0.65453    0.34992    0.32849   1.00
H3       0.69337    0.46876    0.34445   1.00
H3       0.59445    0.39205    0.35267   1.00
H3       0.61828    0.46505    0.36255   1.00
C4       0.52085    0.25024    0.24970   1.00
C4       0.47915    0.24976    0.25030   1.00
C3       0.54249    0.28371    0.26058   1.00
C3       0.45748    0.26797    0.28034   1.00
C3       0.54262    0.21682    0.23896   1.00
C3       0.45741    0.23167    0.22020   1.00
C2       0.60518    0.25012    0.25010   1.00
C2       0.39482    0.25012    0.25010   1.00
C3a      0.58401    0.28380    0.26082   1.00
C3       0.41618    0.26809    0.28018   1.00
C3       0.58389    0.21683    0.23918   1.00
C3a      0.41597    0.23173    0.21993   1.00
H1       0.52706    0.31005    0.26866   1.00
H1       0.47250    0.28194    0.30437   1.00
C5       0.60590    0.32005    0.27240   1.00
H1       0.40067    0.28232    0.30375   1.00
H1       0.59944    0.19056    0.23106   1.00
C5       0.39465    0.21190    0.18704   1.00
H1       0.47253    0.21828    0.19592   1.00
H1       0.52770    0.19013    0.23106   1.00
H2       0.40163    0.18024    0.18779   1.00
H2       0.36253    0.21470    0.19059   1.00
N1       0.40605    0.22872    0.14950   1.00
C6       0.44190    0.22771    0.13347   1.00
C6       0.38243    0.24772    0.12449   1.00
C6       0.44127    0.24644    0.09785   1.00
C6       0.40344    0.25917    0.09215   1.00
H3       0.46719    0.21417    0.14673   1.00
H3       0.35169    0.25310    0.12945   1.00
H3       0.46564    0.25034    0.07820   1.00
H3       0.39242    0.27500    0.06720   1.00
H2       0.63772    0.31392    0.27123   1.00
H2       0.59999    0.34438    0.25181   1.00
N1       0.59477    0.33214    0.31169   1.00
C6       0.61922    0.33517    0.34497   1.00
C6       0.55715    0.34363    0.32469   1.00
C6       0.59723    0.34777    0.37629   1.00
C6       0.55909    0.35296    0.36383   1.00
H3       0.65008    0.32849    0.34547   1.00
H3       0.53124    0.34445    0.30663   1.00
H3       0.60795    0.35267    0.40555   1.00
H3       0.53495    0.36255    0.38172   1.00
C4       0.97915    0.25024    0.25030   1.00
C4       1.02085    0.24976    0.24970   1.00
C3       0.95751    0.28371    0.23942   1.00
C3       1.04252    0.26797    0.21966   1.00
C3       0.95738    0.21682    0.26104   1.00
C3       1.04259    0.23167    0.27980   1.00
C2       0.89482    0.25012    0.24990   1.00
C2       1.10518    0.25012    0.24990   1.00
C3a      0.91599    0.28380    0.23918   1.00
C3       1.08382    0.26809    0.21982   1.00
C3       0.91611    0.21683    0.26082   1.00
C3a      1.08403    0.23173    0.28007   1.00
H1       0.97294    0.31005    0.23134   1.00
H1       1.02750    0.28194    0.19563   1.00
C5       0.89410    0.32005    0.22760   1.00
H1       1.09933    0.28232    0.19625   1.00
H1       0.90056    0.19056    0.26894   1.00
C5       1.10535    0.21190    0.31296   1.00
H1       1.02747    0.21828    0.30408   1.00
H1       0.97230    0.19013    0.26894   1.00
H2       1.09837    0.18024    0.31221   1.00
H2       1.13747    0.21470    0.30941   1.00
N1       1.09395    0.22872    0.35050   1.00
C6       1.05810    0.22771    0.36653   1.00
C6       1.11757    0.24772    0.37551   1.00
C6       1.05873    0.24644    0.40215   1.00
C6       1.09656    0.25917    0.40785   1.00
H3       1.03281    0.21417    0.35327   1.00
H3       1.14831    0.25310    0.37055   1.00
H3       1.03436    0.25034    0.42180   1.00
H3       1.10758    0.27500    0.43280   1.00
H2       0.86228    0.31392    0.22877   1.00
H2       0.90001    0.34438    0.24819   1.00
N1       0.90523    0.33214    0.18831   1.00
C6       0.88078    0.33517    0.15503   1.00
C6       0.94285    0.34363    0.17531   1.00
C6       0.90277    0.34777    0.12371   1.00
C6       0.94091    0.35296    0.13617   1.00
H3       0.84992    0.32849    0.15453   1.00
H3       0.96876    0.34445    0.19337   1.00
H3       0.89205    0.35267    0.09445   1.00
H3       0.96505    0.36255    0.11828   1.00
C4       0.74970    0.02085    0.25024   1.00
C4       0.75030    -0.02085   0.24976   1.00
C3       0.76058    0.04249    0.28371   1.00
C3       0.78034    -0.04252   0.26797   1.00
C3       0.73896    0.04262    0.21682   1.00
C3       0.72020    -0.04259   0.23167   1.00
C2       0.75010    0.10518    0.25012   1.00
C2       0.75010    -0.10518   0.25012   1.00
C3a      0.76082    0.08401    0.28380   1.00
C3       0.78018    -0.08382   0.26809   1.00
C3       0.73918    0.08389    0.21683   1.00
C3a      0.71993    -0.08403   0.23173   1.00
H1       0.76866    0.02706    0.31005   1.00
H1       0.80437    -0.02750   0.28194   1.00
C5       0.77240    0.10590    0.32005   1.00
H1       0.80375    -0.09933   0.28232   1.00
H1       0.73106    0.09944    0.19056   1.00
C5       0.68704    -0.10535   0.21190   1.00
H1       0.69592    -0.02747   0.21828   1.00
H1       0.73106    0.02770    0.19013   1.00
H2       0.68779    -0.09837   0.18024   1.00
H2       0.69059    -0.13747   0.21470   1.00
N1       0.64950    -0.09395   0.22872   1.00
C6       0.63347    -0.05810   0.22771   1.00
C6       0.62449    -0.11757   0.24772   1.00
C6       0.59785    -0.05873   0.24644   1.00
C6       0.59215    -0.09656   0.25917   1.00
H3       0.64673    -0.03281   0.21417   1.00
H3       0.62945    -0.14831   0.25310   1.00
H3       0.57820    -0.03436   0.25034   1.00
H3       0.56720    -0.10758   0.27500   1.00
H2       0.77123    0.13772    0.31392   1.00
H2       0.75181    0.09999    0.34438   1.00
N1       0.81169    0.09477    0.33214   1.00
C6       0.84497    0.11922    0.33517   1.00
C6       0.82469    0.05715    0.34363   1.00
C6       0.87629    0.09723    0.34777   1.00
C6       0.86383    0.05909    0.35296   1.00
H3       0.84547    0.15008    0.32849   1.00
H3       0.80663    0.03124    0.34445   1.00
H3       0.90555    0.10795    0.35267   1.00
H3       0.88172    0.03495    0.36255   1.00
C4       0.75024    0.24970    0.02085   1.00
C4       0.74976    0.25030    -0.02085   1.00
C3       0.78371    0.26058    0.04249   1.00
C3       0.76797    0.28034    -0.04252   1.00
C3       0.71682    0.23896    0.04262   1.00
C3       0.73167    0.22020    -0.04259   1.00
C2       0.75012    0.25010    0.10518   1.00
C2       0.75012    0.25010    -0.10518   1.00
C3a      0.78380    0.26082    0.08401   1.00
C3       0.76809    0.28018    -0.08382   1.00
C3       0.71683    0.23918    0.08389   1.00
C3a      0.73173    0.21993    -0.08403   1.00
H1       0.81005    0.26866    0.02706   1.00
H1       0.78194    0.30437    -0.02750   1.00
C5       0.82005    0.27240    0.10590   1.00
H1       0.78232    0.30375    -0.09933   1.00
H1       0.69056    0.23106    0.09944   1.00
C5       0.71190    0.18704    -0.10535   1.00
H1       0.71828    0.19592    -0.02747   1.00
H1       0.69013    0.23106    0.02770   1.00
H2       0.68024    0.18779    -0.09837   1.00
H2       0.71470    0.19059    -0.13747   1.00
N1       0.72872    0.14950    -0.09395   1.00
C6       0.72771    0.13347    -0.05810   1.00
C6       0.74772    0.12449    -0.11757   1.00
C6       0.74644    0.09785    -0.05873   1.00
C6       0.75917    0.09215    -0.09656   1.00
H3       0.71417    0.14673    -0.03281   1.00
H3       0.75310    0.12945    -0.14831   1.00
H3       0.75034    0.07820    -0.03436   1.00
H3       0.77500    0.06720    -0.10758   1.00
H2       0.81392    0.27123    0.13772   1.00
H2       0.84438    0.25181    0.09999   1.00
N1       0.83214    0.31169    0.09477   1.00
C6       0.83517    0.34497    0.11922   1.00
C6       0.84363    0.32469    0.05715   1.00
C6       0.84777    0.37629    0.09723   1.00
C6       0.85296    0.36383    0.05909   1.00
H3       0.82849    0.34547    0.15008   1.00
H3       0.84445    0.30663    0.03124   1.00
H3       0.85267    0.40555    0.10795   1.00
H3       0.86255    0.38172    0.03495   1.00
C4       1.00024    1.00030    1.22915   1.00
C4       0.99976    0.99970    1.27085   1.00
C3       1.03371    0.98942    1.20751   1.00
C3       1.01797    0.96966    1.29252   1.00
C3       0.96682    1.01104    1.20738   1.00
C3       0.98167    1.02980    1.29259   1.00
C2       1.00012    0.99990    1.14482   1.00
C2       1.00012    0.99990    1.35518   1.00
C3a      1.03380    0.98918    1.16599   1.00
C3       1.01809    0.96982    1.33382   1.00
C3       0.96683    1.01082    1.16611   1.00
C3a      0.98173    1.03007    1.33403   1.00
H1       1.06005    0.98134    1.22294   1.00
H1       1.03194    0.94563    1.27750   1.00
C5       1.07005    0.97760    1.14410   1.00
H1       1.03232    0.94625    1.34933   1.00
H1       0.94056    1.01894    1.15056   1.00
C5       0.96190    1.06296    1.35535   1.00
H1       0.96828    1.05408    1.27747   1.00
H1       0.94013    1.01894    1.22230   1.00
H2       0.93024    1.06221    1.34837   1.00
H2       0.96470    1.05941    1.38747   1.00
N1       0.97872    1.10050    1.34395   1.00
C6       0.97771    1.11653    1.30810   1.00
C6       0.99772    1.12551    1.36757   1.00
C6       0.99644    1.15215    1.30873   1.00
C6       1.00917    1.15785    1.34656   1.00
H3       0.96417    1.10327    1.28281   1.00
H3       1.00310    1.12055    1.39831   1.00
H3       1.00034    1.17180    1.28436   1.00
H3       1.02500    1.18280    1.35758   1.00
H2       1.06392    0.97877    1.11228   1.00
H2       1.09438    0.99819    1.15001   1.00
N1       1.08214    0.93831    1.15523   1.00
C6       1.08517    0.90503    1.13078   1.00
C6       1.09363    0.92531    1.19285   1.00
C6       1.09777    0.87371    1.15277   1.00
C6       1.10296    0.88617    1.19091   1.00
H3       1.07849    0.90453    1.09992   1.00
H3       1.09445    0.94337    1.21876   1.00
H3       1.10267    0.84445    1.14205   1.00
H3       1.11255    0.86828    1.21505   1.00
C4       1.00030    1.22915    1.00024   1.00
C4       0.99970    1.27085    0.99976   1.00
C3       0.98942    1.20751    1.03371   1.00
C3       0.96966    1.29252    1.01797   1.00
C3       1.01104    1.20738    0.96682   1.00
C3       1.02980    1.29259    0.98167   1.00
C2       0.99990    1.14482    1.00012   1.00
C2       0.99990    1.35518    1.00012   1.00
C3a      0.98918    1.16599    1.03380   1.00
C3       0.96982    1.33382    1.01809   1.00
C3       1.01082    1.16611    0.96683   1.00
C3a      1.03007    1.33403    0.98173   1.00
H1       0.98134    1.22294    1.06005   1.00
H1       0.94563    1.27750    1.03194   1.00
C5       0.97760    1.14410    1.07005   1.00
H1       0.94625    1.34933    1.03232   1.00
H1       1.01894    1.15056    0.94056   1.00
C5       1.06296    1.35535    0.96190   1.00
H1       1.05408    1.27747    0.96828   1.00
H1       1.01894    1.22230    0.94013   1.00
H2       1.06221    1.34837    0.93024   1.00
H2       1.05941    1.38747    0.96470   1.00
N1       1.10050    1.34395    0.97872   1.00
C6       1.11653    1.30810    0.97771   1.00
C6       1.12551    1.36757    0.99772   1.00
C6       1.15215    1.30873    0.99644   1.00
C6       1.15785    1.34656    1.00917   1.00
H3       1.10327    1.28281    0.96417   1.00
H3       1.12055    1.39831    1.00310   1.00
H3       1.17180    1.28436    1.00034   1.00
H3       1.18280    1.35758    1.02500   1.00
H2       0.97877    1.11228    1.06392   1.00
H2       0.99819    1.15001    1.09438   1.00
N1       0.93831    1.15523    1.08214   1.00
C6       0.90503    1.13078    1.08517   1.00
C6       0.92531    1.19285    1.09363   1.00
C6       0.87371    1.15277    1.09777   1.00
C6       0.88617    1.19091    1.10296   1.00
H3       0.90453    1.09992    1.07849   1.00
H3       0.94337    1.21876    1.09445   1.00
H3       0.84445    1.14205    1.10267   1.00
H3       0.86828    1.21505    1.11255   1.00
C4       0.77085    1.00024    0.99970   1.00
C4       0.72915    0.99976    1.00030   1.00
C3       0.79249    1.03371    1.01058   1.00
C3       0.70748    1.01797    1.03034   1.00
C3       0.79262    0.96682    0.98896   1.00
C3       0.70741    0.98167    0.97020   1.00
C2       0.85518    1.00012    1.00010   1.00
C2       0.64482    1.00012    1.00010   1.00
C3a      0.83401    1.03380    1.01082   1.00
C3       0.66618    1.01809    1.03018   1.00
C3       0.83389    0.96683    0.98918   1.00
C3a      0.66597    0.98173    0.96993   1.00
H1       0.77706    1.06005    1.01866   1.00
H1       0.72250    1.03194    1.05437   1.00
C5       0.85590    1.07005    1.02240   1.00
H1       0.65067    1.03232    1.05375   1.00
H1       0.84944    0.94056    0.98106   1.00
C5       0.64465    0.96190    0.93704   1.00
H1       0.72253    0.96828    0.94592   1.00
H1       0.77770    0.94013    0.98106   1.00
H2       0.65163    0.93024    0.93779   1.00
H2       0.61253    0.96470    0.94059   1.00
N1       0.65605    0.97872    0.89950   1.00
C6       0.69190    0.97771    0.88347   1.00
C6       0.63243    0.99772    0.87449   1.00
C6       0.69127    0.99644    0.84785   1.00
C6       0.65344    1.00917    0.84215   1.00
H3       0.71719    0.96417    0.89673   1.00
H3       0.60169    1.00310    0.87945   1.00
H3       0.71564    1.00034    0.82820   1.00
H3       0.64242    1.02500    0.81720   1.00
H2       0.88772    1.06392    1.02123   1.00
H2       0.84999    1.09438    1.00181   1.00
N1       0.84477    1.08214    1.06169   1.00
C6       0.86922    1.08517    1.09497   1.00
C6       0.80715    1.09363    1.07469   1.00
C6       0.84723    1.09777    1.12629   1.00
C6       0.80909    1.10296    1.11383   1.00
H3       0.90008    1.07849    1.09547   1.00
H3       0.78124    1.09445    1.05663   1.00
H3       0.85795    1.10267    1.15555   1.00
H3       0.78495    1.11255    1.13172   1.00
C4       1.22915    1.00024    1.00030   1.00
C4       1.27085    0.99976    0.99970   1.00
C3       1.20751    1.03371    0.98942   1.00
C3       1.29252    1.01797    0.96966   1.00
C3       1.20738    0.96682    1.01104   1.00
C3       1.29259    0.98167    1.02980   1.00
C2       1.14482    1.00012    0.99990   1.00
C2       1.35518    1.00012    0.99990   1.00
C3a      1.16599    1.03380    0.98918   1.00
C3       1.33382    1.01809    0.96982   1.00
C3       1.16611    0.96683    1.01082   1.00
C3a      1.33403    0.98173    1.03007   1.00
H1       1.22294    1.06005    0.98134   1.00
H1       1.27750    1.03194    0.94563   1.00
C5       1.14410    1.07005    0.97760   1.00
H1       1.34933    1.03232    0.94625   1.00
H1       1.15056    0.94056    1.01894   1.00
C5       1.35535    0.96190    1.06296   1.00
H1       1.27747    0.96828    1.05408   1.00
H1       1.22230    0.94013    1.01894   1.00
H2       1.34837    0.93024    1.06221   1.00
H2       1.38747    0.96470    1.05941   1.00
N1       1.34395    0.97872    1.10050   1.00
C6       1.30810    0.97771    1.11653   1.00
C6       1.36757    0.99772    1.12551   1.00
C6       1.30873    0.99644    1.15215   1.00
C6       1.34656    1.00917    1.15785   1.00
H3       1.28281    0.96417    1.10327   1.00
H3       1.39831    1.00310    1.12055   1.00
H3       1.28436    1.00034    1.17180   1.00
H3       1.35758    1.02500    1.18280   1.00
H2       1.11228    1.06392    0.97877   1.00
H2       1.15001    1.09438    0.99819   1.00
N1       1.15523    1.08214    0.93831   1.00
C6       1.13078    1.08517    0.90503   1.00
C6       1.19285    1.09363    0.92531   1.00
C6       1.15277    1.09777    0.87371   1.00
C6       1.19091    1.10296    0.88617   1.00
H3       1.09992    1.07849    0.90453   1.00
H3       1.21876    1.09445    0.94337   1.00
H3       1.14205    1.10267    0.84445   1.00
H3       1.21505    1.11255    0.86828   1.00
C4       0.99970    0.77085    1.00024   1.00
C4       1.00030    0.72915    0.99976   1.00
C3       1.01058    0.79249    1.03371   1.00
C3       1.03034    0.70748    1.01797   1.00
C3       0.98896    0.79262    0.96682   1.00
C3       0.97020    0.70741    0.98167   1.00
C2       1.00010    0.85518    1.00012   1.00
C2       1.00010    0.64482    1.00012   1.00
C3a      1.01082    0.83401    1.03380   1.00
C3       1.03018    0.66618    1.01809   1.00
C3       0.98918    0.83389    0.96683   1.00
C3a      0.96993    0.66597    0.98173   1.00
H1       1.01866    0.77706    1.06005   1.00
H1       1.05437    0.72250    1.03194   1.00
C5       1.02240    0.85590    1.07005   1.00
H1       1.05375    0.65067    1.03232   1.00
H1       0.98106    0.84944    0.94056   1.00
C5       0.93704    0.64465    0.96190   1.00
H1       0.94592    0.72253    0.96828   1.00
H1       0.98106    0.77770    0.94013   1.00
H2       0.93779    0.65163    0.93024   1.00
H2       0.94059    0.61253    0.96470   1.00
N1       0.89950    0.65605    0.97872   1.00
C6       0.88347    0.69190    0.97771   1.00
C6       0.87449    0.63243    0.99772   1.00
C6       0.84785    0.69127    0.99644   1.00
C6       0.84215    0.65344    1.00917   1.00
H3       0.89673    0.71719    0.96417   1.00
H3       0.87945    0.60169    1.00310   1.00
H3       0.82820    0.71564    1.00034   1.00
H3       0.81720    0.64242    1.02500   1.00
H2       1.02123    0.88772    1.06392   1.00
H2       1.00181    0.84999    1.09438   1.00
N1       1.06169    0.84477    1.08214   1.00
C6       1.09497    0.86922    1.08517   1.00
C6       1.07469    0.80715    1.09363   1.00
C6       1.12629    0.84723    1.09777   1.00
C6       1.11383    0.80909    1.10296   1.00
H3       1.09547    0.90008    1.07849   1.00
H3       1.05663    0.78124    1.09445   1.00
H3       1.15555    0.85795    1.10267   1.00
H3       1.13172    0.78495    1.11255   1.00
C4       1.00024    0.99970    0.77085   1.00
C4       0.99976    1.00030    0.72915   1.00
C3       1.03371    1.01058    0.79249   1.00
C3       1.01797    1.03034    0.70748   1.00
C3       0.96682    0.98896    0.79262   1.00
C3       0.98167    0.97020    0.70741   1.00
C2       1.00012    1.00010    0.85518   1.00
C2       1.00012    1.00010    0.64482   1.00
C3a      1.03380    1.01082    0.83401   1.00
C3       1.01809    1.03018    0.66618   1.00
C3       0.96683    0.98918    0.83389   1.00
C3a      0.98173    0.96993    0.66597   1.00
H1       1.06005    1.01866    0.77706   1.00
H1       1.03194    1.05437    0.72250   1.00
C5       1.07005    1.02240    0.85590   1.00
H1       1.03232    1.05375    0.65067   1.00
H1       0.94056    0.98106    0.84944   1.00
C5       0.96190    0.93704    0.64465   1.00
H1       0.96828    0.94592    0.72253   1.00
H1       0.94013    0.98106    0.77770   1.00
H2       0.93024    0.93779    0.65163   1.00
H2       0.96470    0.94059    0.61253   1.00
N1       0.97872    0.89950    0.65605   1.00
C6       0.97771    0.88347    0.69190   1.00
C6       0.99772    0.87449    0.63243   1.00
C6       0.99644    0.84785    0.69127   1.00
C6       1.00917    0.84215    0.65344   1.00
H3       0.96417    0.89673    0.71719   1.00
H3       1.00310    0.87945    0.60169   1.00
H3       1.00034    0.82820    0.71564   1.00
H3       1.02500    0.81720    0.64242   1.00
H2       1.06392    1.02123    0.88772   1.00
H2       1.09438    1.00181    0.84999   1.00
N1       1.08214    1.06169    0.84477   1.00
C6       1.08517    1.09497    0.86922   1.00
C6       1.09363    1.07469    0.80715   1.00
C6       1.09777    1.12629    0.84723   1.00
C6       1.10296    1.11383    0.80909   1.00
H3       1.07849    1.09547    0.90008   1.00
H3       1.09445    1.05663    0.78124   1.00
H3       1.10267    1.15555    0.85795   1.00
H3       1.11255    1.13172    0.78495   1.00
C4       0.50024    0.50030    1.22915   1.00
C4       0.49976    0.49970    1.27085   1.00
C3       0.53371    0.48942    1.20751   1.00
C3       0.51797    0.46966    1.29252   1.00
C3       0.46682    0.51104    1.20738   1.00
C3       0.48167    0.52980    1.29259   1.00
C2       0.50012    0.49990    1.14482   1.00
C2       0.50012    0.49990    1.35518   1.00
C3a      0.53380    0.48918    1.16599   1.00
C3       0.51809    0.46982    1.33382   1.00
C3       0.46683    0.51082    1.16611   1.00
C3a      0.48173    0.53007    1.33403   1.00
H1       0.56005    0.48134    1.22294   1.00
H1       0.53194    0.44563    1.27750   1.00
C5       0.57005    0.47760    1.14410   1.00
H1       0.53232    0.44625    1.34933   1.00
H1       0.44056    0.51894    1.15056   1.00
C5       0.46190    0.56296    1.35535   1.00
H1       0.46828    0.55408    1.27747   1.00
H1       0.44013    0.51894    1.22230   1.00
H2       0.43024    0.56221    1.34837   1.00
H2       0.46470    0.55941    1.38747   1.00
N1       0.47872    0.60050    1.34395   1.00
C6       0.47771    0.61653    1.30810   1.00
C6       0.49772    0.62551    1.36757   1.00
C6       0.49644    0.65215    1.30873   1.00
C6       0.50917    0.65785    1.34656   1.00
H3       0.46417    0.60327    1.28281   1.00
H3       0.50310    0.62055    1.39831   1.00
H3       0.50034    0.67180    1.28436   1.00
H3       0.52500    0.68280    1.35758   1.00
H2       0.56392    0.47877    1.11228   1.00
H2       0.59438    0.49819    1.15001   1.00
N1       0.58214    0.43831    1.15523   1.00
C6       0.58517    0.40503    1.13078   1.00
C6       0.59363    0.42531    1.19285   1.00
C6       0.59777    0.37371    1.15277   1.00
C6       0.60296    0.38617    1.19091   1.00
H3       0.57849    0.40453    1.09992   1.00
H3       0.59445    0.44337    1.21876   1.00
H3       0.60267    0.34445    1.14205   1.00
H3       0.61255    0.36828    1.21505   1.00
C4       0.50030    0.72915    1.00024   1.00
C4       0.49970    0.77085    0.99976   1.00
C3       0.48942    0.70751    1.03371   1.00
C3       0.46966    0.79252    1.01797   1.00
C3       0.51104    0.70738    0.96682   1.00
C3       0.52980    0.79259    0.98167   1.00
C2       0.49990    0.64482    1.00012   1.00
C2       0.49990    0.85518    1.00012   1.00
C3a      0.48918    0.66599    1.03380   1.00
C3       0.46982    0.83382    1.01809   1.00
C3       0.51082    0.66611    0.96683   1.00
C3a      0.53007    0.83403    0.98173   1.00
H1       0.48134    0.72294    1.06005   1.00
H1       0.44563    0.77750    1.03194   1.00
C5       0.47760    0.64410    1.07005   1.00
H1       0.44625    0.84933    1.03232   1.00
H1       0.51894    0.65056    0.94056   1.00
C5       0.56296    0.85535    0.96190   1.00
H1       0.55408    0.77747    0.96828   1.00
H1       0.51894    0.72230    0.94013   1.00
H2       0.56221    0.84837    0.93024   1.00
H2       0.55941    0.88747    0.96470   1.00
N1       0.60050    0.84395    0.97872   1.00
C6       0.61653    0.80810    0.97771   1.00
C6       0.62551    0.86757    0.99772   1.00
C6       0.65215    0.80873    0.99644   1.00
C6       0.65785    0.84656    1.00917   1.00
H3       0.60327    0.78281    0.96417   1.00
H3       0.62055    0.89831    1.00310   1.00
H3       0.67180    0.78436    1.00034   1.00
H3       0.68280    0.85758    1.02500   1.00
H2       0.47877    0.61228    1.06392   1.00
H2       0.49819    0.65001    1.09438   1.00
N1       0.43831    0.65523    1.08214   1.00
C6       0.40503    0.63078    1.08517   1.00
C6       0.42531    0.69285    1.09363   1.00
C6       0.37371    0.65277    1.09777   1.00
C6       0.38617    0.69091    1.10296   1.00
H3       0.40453    0.59992    1.07849   1.00
H3       0.44337    0.71876    1.09445   1.00
H3       0.34445    0.64205    1.10267   1.00
H3       0.36828    0.71505    1.11255   1.00
C4       0.27085    0.50024    0.99970   1.00
C4       0.22915    0.49976    1.00030   1.00
C3       0.29249    0.53371    1.01058   1.00
C3       0.20748    0.51797    1.03034   1.00
C3       0.29262    0.46682    0.98896   1.00
C3       0.20741    0.48167    0.97020   1.00
C2       0.35518    0.50012    1.00010   1.00
C2       0.14482    0.50012    1.00010   1.00
C3a      0.33401    0.53380    1.01082   1.00
C3       0.16618    0.51809    1.03018   1.00
C3       0.33389    0.46683    0.98918   1.00
C3a      0.16597    0.48173    0.96993   1.00
H1       0.27706    0.56005    1.01866   1.00
H1       0.22250    0.53194    1.05437   1.00
C5       0.35590    0.57005    1.02240   1.00
H1       0.15067    0.53232    1.05375   1.00
H1       0.34944    0.44056    0.98106   1.00
C5       0.14465    0.46190    0.93704   1.00
H1       0.22253    0.46828    0.94592   1.00
H1       0.27770    0.44013    0.98106   1.00
H2       0.15163    0.43024    0.93779   1.00
H2       0.11253    0.46470    0.94059   1.00
N1       0.15605    0.47872    0.89950   1.00
C6       0.19190    0.47771    0.88347   1.00
C6       0.13243    0.49772    0.87449   1.00
C6       0.19127    0.49644    0.84785   1.00
C6       0.15344    0.50917    0.84215   1.00
H3       0.21719    0.46417    0.89673   1.00
H3       0.10169    0.50310    0.87945   1.00
H3       0.21564    0.50034    0.82820   1.00
H3       0.14242    0.52500    0.81720   1.00
H2       0.38772    0.56392    1.02123   1.00
H2       0.34999    0.59438    1.00181   1.00
N1       0.34477    0.58214    1.06169   1.00
C6       0.36922    0.58517    1.09497   1.00
C6       0.30715    0.59363    1.07469   1.00
C6       0.34723    0.59777    1.12629   1.00
C6       0.30909    0.60296    1.11383   1.00
H3       0.40008    0.57849    1.09547   1.00
H3       0.28124    0.59445    1.05663   1.00
H3       0.35795    0.60267    1.15555   1.00
H3       0.28495    0.61255    1.13172   1.00
C4       0.72915    0.50024    1.00030   1.00
C4       0.77085    0.49976    0.99970   1.00
C3       0.70751    0.53371    0.98942   1.00
C3       0.79252    0.51797    0.96966   1.00
C3       0.70738    0.46682    1.01104   1.00
C3       0.79259    0.48167    1.02980   1.00
C2       0.64482    0.50012    0.99990   1.00
C2       0.85518    0.50012    0.99990   1.00
C3a      0.66599    0.53380    0.98918   1.00
C3       0.83382    0.51809    0.96982   1.00
C3       0.66611    0.46683    1.01082   1.00
C3a      0.83403    0.48173    1.03007   1.00
H1       0.72294    0.56005    0.98134   1.00
H1       0.77750    0.53194    0.94563   1.00
C5       0.64410    0.57005    0.97760   1.00
H1       0.84933    0.53232    0.94625   1.00
H1       0.65056    0.44056    1.01894   1.00
C5       0.85535    0.46190    1.06296   1.00
H1       0.77747    0.46828    1.05408   1.00
H1       0.72230    0.44013    1.01894   1.00
H2       0.84837    0.43024    1.06221   1.00
H2       0.88747    0.46470    1.05941   1.00
N1       0.84395    0.47872    1.10050   1.00
C6       0.80810    0.47771    1.11653   1.00
C6       0.86757    0.49772    1.12551   1.00
C6       0.80873    0.49644    1.15215   1.00
C6       0.84656    0.50917    1.15785   1.00
H3       0.78281    0.46417    1.10327   1.00
H3       0.89831    0.50310    1.12055   1.00
H3       0.78436    0.50034    1.17180   1.00
H3       0.85758    0.52500    1.18280   1.00
H2       0.61228    0.56392    0.97877   1.00
H2       0.65001    0.59438    0.99819   1.00
N1       0.65523    0.58214    0.93831   1.00
C6       0.63078    0.58517    0.90503   1.00
C6       0.69285    0.59363    0.92531   1.00
C6       0.65277    0.59777    0.87371   1.00
C6       0.69091    0.60296    0.88617   1.00
H3       0.59992    0.57849    0.90453   1.00
H3       0.71876    0.59445    0.94337   1.00
H3       0.64205    0.60267    0.84445   1.00
H3       0.71505    0.61255    0.86828   1.00
C4       0.49970    0.27085    1.00024   1.00
C4       0.50030    0.22915    0.99976   1.00
C3       0.51058    0.29249    1.03371   1.00
C3       0.53034    0.20748    1.01797   1.00
C3       0.48896    0.29262    0.96682   1.00
C3       0.47020    0.20741    0.98167   1.00
C2       0.50010    0.35518    1.00012   1.00
C2       0.50010    0.14482    1.00012   1.00
C3a      0.51082    0.33401    1.03380   1.00
C3       0.53018    0.16618    1.01809   1.00
C3       0.48918    0.33389    0.96683   1.00
C3a      0.46993    0.16597    0.98173   1.00
H1       0.51866    0.27706    1.06005   1.00
H1       0.55437    0.22250    1.03194   1.00
C5       0.52240    0.35590    1.07005   1.00
H1       0.55375    0.15067    1.03232   1.00
H1       0.48106    0.34944    0.94056   1.00
C5       0.43704    0.14465    0.96190   1.00
H1       0.44592    0.22253    0.96828   1.00
H1       0.48106    0.27770    0.94013   1.00
H2       0.43779    0.15163    0.93024   1.00
H2       0.44059    0.11253    0.96470   1.00
N1       0.39950    0.15605    0.97872   1.00
C6       0.38347    0.19190    0.97771   1.00
C6       0.37449    0.13243    0.99772   1.00
C6       0.34785    0.19127    0.99644   1.00
C6       0.34215    0.15344    1.00917   1.00
H3       0.39673    0.21719    0.96417   1.00
H3       0.37945    0.10169    1.00310   1.00
H3       0.32820    0.21564    1.00034   1.00
H3       0.31720    0.14242    1.02500   1.00
H2       0.52123    0.38772    1.06392   1.00
H2       0.50181    0.34999    1.09438   1.00
N1       0.56169    0.34477    1.08214   1.00
C6       0.59497    0.36922    1.08517   1.00
C6       0.57469    0.30715    1.09363   1.00
C6       0.62629    0.34723    1.09777   1.00
C6       0.61383    0.30909    1.10296   1.00
H3       0.59547    0.40008    1.07849   1.00
H3       0.55663    0.28124    1.09445   1.00
H3       0.65555    0.35795    1.10267   1.00
H3       0.63172    0.28495    1.11255   1.00
C4       0.50024    0.49970    0.77085   1.00
C4       0.49976    0.50030    0.72915   1.00
C3       0.53371    0.51058    0.79249   1.00
C3       0.51797    0.53034    0.70748   1.00
C3       0.46682    0.48896    0.79262   1.00
C3       0.48167    0.47020    0.70741   1.00
C2       0.50012    0.50010    0.85518   1.00
C2       0.50012    0.50010    0.64482   1.00
C3a      0.53380    0.51082    0.83401   1.00
C3       0.51809    0.53018    0.66618   1.00
C3       0.46683    0.48918    0.83389   1.00
C3a      0.48173    0.46993    0.66597   1.00
H1       0.56005    0.51866    0.77706   1.00
H1       0.53194    0.55437    0.72250   1.00
C5       0.57005    0.52240    0.85590   1.00
H1       0.53232    0.55375    0.65067   1.00
H1       0.44056    0.48106    0.84944   1.00
C5       0.46190    0.43704    0.64465   1.00
H1       0.46828    0.44592    0.72253   1.00
H1       0.44013    0.48106    0.77770   1.00
H2       0.43024    0.43779    0.65163   1.00
H2       0.46470    0.44059    0.61253   1.00
N1       0.47872    0.39950    0.65605   1.00
C6       0.47771    0.38347    0.69190   1.00
C6       0.49772    0.37449    0.63243   1.00
C6       0.49644    0.34785    0.69127   1.00
C6       0.50917    0.34215    0.65344   1.00
H3       0.46417    0.39673    0.71719   1.00
H3       0.50310    0.37945    0.60169   1.00
H3       0.50034    0.32820    0.71564   1.00
H3       0.52500    0.31720    0.64242   1.00
H2       0.56392    0.52123    0.88772   1.00
H2       0.59438    0.50181    0.84999   1.00
N1       0.58214    0.56169    0.84477   1.00
C6       0.58517    0.59497    0.86922   1.00
C6       0.59363    0.57469    0.80715   1.00
C6       0.59777    0.62629    0.84723   1.00
C6       0.60296    0.61383    0.80909   1.00
H3       0.57849    0.59547    0.90008   1.00
H3       0.59445    0.55663    0.78124   1.00
H3       0.60267    0.65555    0.85795   1.00
H3       0.61255    0.63172    0.78495   1.00
C4       0.50024    1.00030    0.72915   1.00
C4       0.49976    0.99970    0.77085   1.00
C3       0.53371    0.98942    0.70751   1.00
C3       0.51797    0.96966    0.79252   1.00
C3       0.46682    1.01104    0.70738   1.00
C3       0.48167    1.02980    0.79259   1.00
C2       0.50012    0.99990    0.64482   1.00
C2       0.50012    0.99990    0.85518   1.00
C3a      0.53380    0.98918    0.66599   1.00
C3       0.51809    0.96982    0.83382   1.00
C3       0.46683    1.01082    0.66611   1.00
C3a      0.48173    1.03007    0.83403   1.00
H1       0.56005    0.98134    0.72294   1.00
H1       0.53194    0.94563    0.77750   1.00
C5       0.57005    0.97760    0.64410   1.00
H1       0.53232    0.94625    0.84933   1.00
H1       0.44056    1.01894    0.65056   1.00
C5       0.46190    1.06296    0.85535   1.00
H1       0.46828    1.05408    0.77747   1.00
H1       0.44013    1.01894    0.72230   1.00
H2       0.43024    1.06221    0.84837   1.00
H2       0.46470    1.05941    0.88747   1.00
N1       0.47872    1.10050    0.84395   1.00
C6       0.47771    1.11653    0.80810   1.00
C6       0.49772    1.12551    0.86757   1.00
C6       0.49644    1.15215    0.80873   1.00
C6       0.50917    1.15785    0.84656   1.00
H3       0.46417    1.10327    0.78281   1.00
H3       0.50310    1.12055    0.89831   1.00
H3       0.50034    1.17180    0.78436   1.00
H3       0.52500    1.18280    0.85758   1.00
H2       0.56392    0.97877    0.61228   1.00
H2       0.59438    0.99819    0.65001   1.00
N1       0.58214    0.93831    0.65523   1.00
C6       0.58517    0.90503    0.63078   1.00
C6       0.59363    0.92531    0.69285   1.00
C6       0.59777    0.87371    0.65277   1.00
C6       0.60296    0.88617    0.69091   1.00
H3       0.57849    0.90453    0.59992   1.00
H3       0.59445    0.94337    0.71876   1.00
H3       0.60267    0.84445    0.64205   1.00
H3       0.61255    0.86828    0.71505   1.00
C4       0.50030    1.22915    0.50024   1.00
C4       0.49970    1.27085    0.49976   1.00
C3       0.48942    1.20751    0.53371   1.00
C3       0.46966    1.29252    0.51797   1.00
C3       0.51104    1.20738    0.46682   1.00
C3       0.52980    1.29259    0.48167   1.00
C2       0.49990    1.14482    0.50012   1.00
C2       0.49990    1.35518    0.50012   1.00
C3a      0.48918    1.16599    0.53380   1.00
C3       0.46982    1.33382    0.51809   1.00
C3       0.51082    1.16611    0.46683   1.00
C3a      0.53007    1.33403    0.48173   1.00
H1       0.48134    1.22294    0.56005   1.00
H1       0.44563    1.27750    0.53194   1.00
C5       0.47760    1.14410    0.57005   1.00
H1       0.44625    1.34933    0.53232   1.00
H1       0.51894    1.15056    0.44056   1.00
C5       0.56296    1.35535    0.46190   1.00
H1       0.55408    1.27747    0.46828   1.00
H1       0.51894    1.22230    0.44013   1.00
H2       0.56221    1.34837    0.43024   1.00
H2       0.55941    1.38747    0.46470   1.00
N1       0.60050    1.34395    0.47872   1.00
C6       0.61653    1.30810    0.47771   1.00
C6       0.62551    1.36757    0.49772   1.00
C6       0.65215    1.30873    0.49644   1.00
C6       0.65785    1.34656    0.50917   1.00
H3       0.60327    1.28281    0.46417   1.00
H3       0.62055    1.39831    0.50310   1.00
H3       0.67180    1.28436    0.50034   1.00
H3       0.68280    1.35758    0.52500   1.00
H2       0.47877    1.11228    0.56392   1.00
H2       0.49819    1.15001    0.59438   1.00
N1       0.43831    1.15523    0.58214   1.00
C6       0.40503    1.13078    0.58517   1.00
C6       0.42531    1.19285    0.59363   1.00
C6       0.37371    1.15277    0.59777   1.00
C6       0.38617    1.19091    0.60296   1.00
H3       0.40453    1.09992    0.57849   1.00
H3       0.44337    1.21876    0.59445   1.00
H3       0.34445    1.14205    0.60267   1.00
H3       0.36828    1.21505    0.61255   1.00
C4       0.27085    1.00024    0.49970   1.00
C4       0.22915    0.99976    0.50030   1.00
C3       0.29249    1.03371    0.51058   1.00
C3       0.20748    1.01797    0.53034   1.00
C3       0.29262    0.96682    0.48896   1.00
C3       0.20741    0.98167    0.47020   1.00
C2       0.35518    1.00012    0.50010   1.00
C2       0.14482    1.00012    0.50010   1.00
C3a      0.33401    1.03380    0.51082   1.00
C3       0.16618    1.01809    0.53018   1.00
C3       0.33389    0.96683    0.48918   1.00
C3a      0.16597    0.98173    0.46993   1.00
H1       0.27706    1.06005    0.51866   1.00
H1       0.22250    1.03194    0.55437   1.00
C5       0.35590    1.07005    0.52240   1.00
H1       0.15067    1.03232    0.55375   1.00
H1       0.34944    0.94056    0.48106   1.00
C5       0.14465    0.96190    0.43704   1.00
H1       0.22253    0.96828    0.44592   1.00
H1       0.27770    0.94013    0.48106   1.00
H2       0.15163    0.93024    0.43779   1.00
H2       0.11253    0.96470    0.44059   1.00
N1       0.15605    0.97872    0.39950   1.00
C6       0.19190    0.97771    0.38347   1.00
C6       0.13243    0.99772    0.37449   1.00
C6       0.19127    0.99644    0.34785   1.00
C6       0.15344    1.00917    0.34215   1.00
H3       0.21719    0.96417    0.39673   1.00
H3       0.10169    1.00310    0.37945   1.00
H3       0.21564    1.00034    0.32820   1.00
H3       0.14242    1.02500    0.31720   1.00
H2       0.38772    1.06392    0.52123   1.00
H2       0.34999    1.09438    0.50181   1.00
N1       0.34477    1.08214    0.56169   1.00
C6       0.36922    1.08517    0.59497   1.00
C6       0.30715    1.09363    0.57469   1.00
C6       0.34723    1.09777    0.62629   1.00
C6       0.30909    1.10296    0.61383   1.00
H3       0.40008    1.07849    0.59547   1.00
H3       0.28124    1.09445    0.55663   1.00
H3       0.35795    1.10267    0.65555   1.00
H3       0.28495    1.11255    0.63172   1.00
C4       0.72915    1.00024    0.50030   1.00
C4       0.77085    0.99976    0.49970   1.00
C3       0.70751    1.03371    0.48942   1.00
C3       0.79252    1.01797    0.46966   1.00
C3       0.70738    0.96682    0.51104   1.00
C3       0.79259    0.98167    0.52980   1.00
C2       0.64482    1.00012    0.49990   1.00
C2       0.85518    1.00012    0.49990   1.00
C3a      0.66599    1.03380    0.48918   1.00
C3       0.83382    1.01809    0.46982   1.00
C3       0.66611    0.96683    0.51082   1.00
C3a      0.83403    0.98173    0.53007   1.00
H1       0.72294    1.06005    0.48134   1.00
H1       0.77750    1.03194    0.44563   1.00
C5       0.64410    1.07005    0.47760   1.00
H1       0.84933    1.03232    0.44625   1.00
H1       0.65056    0.94056    0.51894   1.00
C5       0.85535    0.96190    0.56296   1.00
H1       0.77747    0.96828    0.55408   1.00
H1       0.72230    0.94013    0.51894   1.00
H2       0.84837    0.93024    0.56221   1.00
H2       0.88747    0.96470    0.55941   1.00
N1       0.84395    0.97872    0.60050   1.00
C6       0.80810    0.97771    0.61653   1.00
C6       0.86757    0.99772    0.62551   1.00
C6       0.80873    0.99644    0.65215   1.00
C6       0.84656    1.00917    0.65785   1.00
H3       0.78281    0.96417    0.60327   1.00
H3       0.89831    1.00310    0.62055   1.00
H3       0.78436    1.00034    0.67180   1.00
H3       0.85758    1.02500    0.68280   1.00
H2       0.61228    1.06392    0.47877   1.00
H2       0.65001    1.09438    0.49819   1.00
N1       0.65523    1.08214    0.43831   1.00
C6       0.63078    1.08517    0.40503   1.00
C6       0.69285    1.09363    0.42531   1.00
C6       0.65277    1.09777    0.37371   1.00
C6       0.69091    1.10296    0.38617   1.00
H3       0.59992    1.07849    0.40453   1.00
H3       0.71876    1.09445    0.44337   1.00
H3       0.64205    1.10267    0.34445   1.00
H3       0.71505    1.11255    0.36828   1.00
C4       0.49970    0.77085    0.50024   1.00
C4       0.50030    0.72915    0.49976   1.00
C3       0.51058    0.79249    0.53371   1.00
C3       0.53034    0.70748    0.51797   1.00
C3       0.48896    0.79262    0.46682   1.00
C3       0.47020    0.70741    0.48167   1.00
C2       0.50010    0.85518    0.50012   1.00
C2       0.50010    0.64482    0.50012   1.00
C3a      0.51082    0.83401    0.53380   1.00
C3       0.53018    0.66618    0.51809   1.00
C3       0.48918    0.83389    0.46683   1.00
C3a      0.46993    0.66597    0.48173   1.00
H1       0.51866    0.77706    0.56005   1.00
H1       0.55437    0.72250    0.53194   1.00
C5       0.52240    0.85590    0.57005   1.00
H1       0.55375    0.65067    0.53232   1.00
H1       0.48106    0.84944    0.44056   1.00
C5       0.43704    0.64465    0.46190   1.00
H1       0.44592    0.72253    0.46828   1.00
H1       0.48106    0.77770    0.44013   1.00
H2       0.43779    0.65163    0.43024   1.00
H2       0.44059    0.61253    0.46470   1.00
N1       0.39950    0.65605    0.47872   1.00
C6       0.38347    0.69190    0.47771   1.00
C6       0.37449    0.63243    0.49772   1.00
C6       0.34785    0.69127    0.49644   1.00
C6       0.34215    0.65344    0.50917   1.00
H3       0.39673    0.71719    0.46417   1.00
H3       0.37945    0.60169    0.50310   1.00
H3       0.32820    0.71564    0.50034   1.00
H3       0.31720    0.64242    0.52500   1.00
H2       0.52123    0.88772    0.56392   1.00
H2       0.50181    0.84999    0.59438   1.00
N1       0.56169    0.84477    0.58214   1.00
C6       0.59497    0.86922    0.58517   1.00
C6       0.57469    0.80715    0.59363   1.00
C6       0.62629    0.84723    0.59777   1.00
C6       0.61383    0.80909    0.60296   1.00
H3       0.59547    0.90008    0.57849   1.00
H3       0.55663    0.78124    0.59445   1.00
H3       0.65555    0.85795    0.60267   1.00
H3       0.63172    0.78495    0.61255   1.00
C4       0.50024    0.99970    0.27085   1.00
C4       0.49976    1.00030    0.22915   1.00
C3       0.53371    1.01058    0.29249   1.00
C3       0.51797    1.03034    0.20748   1.00
C3       0.46682    0.98896    0.29262   1.00
C3       0.48167    0.97020    0.20741   1.00
C2       0.50012    1.00010    0.35518   1.00
C2       0.50012    1.00010    0.14482   1.00
C3a      0.53380    1.01082    0.33401   1.00
C3       0.51809    1.03018    0.16618   1.00
C3       0.46683    0.98918    0.33389   1.00
C3a      0.48173    0.96993    0.16597   1.00
H1       0.56005    1.01866    0.27706   1.00
H1       0.53194    1.05437    0.22250   1.00
C5       0.57005    1.02240    0.35590   1.00
H1       0.53232    1.05375    0.15067   1.00
H1       0.44056    0.98106    0.34944   1.00
C5       0.46190    0.93704    0.14465   1.00
H1       0.46828    0.94592    0.22253   1.00
H1       0.44013    0.98106    0.27770   1.00
H2       0.43024    0.93779    0.15163   1.00
H2       0.46470    0.94059    0.11253   1.00
N1       0.47872    0.89950    0.15605   1.00
C6       0.47771    0.88347    0.19190   1.00
C6       0.49772    0.87449    0.13243   1.00
C6       0.49644    0.84785    0.19127   1.00
C6       0.50917    0.84215    0.15344   1.00
H3       0.46417    0.89673    0.21719   1.00
H3       0.50310    0.87945    0.10169   1.00
H3       0.50034    0.82820    0.21564   1.00
H3       0.52500    0.81720    0.14242   1.00
H2       0.56392    1.02123    0.38772   1.00
H2       0.59438    1.00181    0.34999   1.00
N1       0.58214    1.06169    0.34477   1.00
C6       0.58517    1.09497    0.36922   1.00
C6       0.59363    1.07469    0.30715   1.00
C6       0.59777    1.12629    0.34723   1.00
C6       0.60296    1.11383    0.30909   1.00
H3       0.57849    1.09547    0.40008   1.00
H3       0.59445    1.05663    0.28124   1.00
H3       0.60267    1.15555    0.35795   1.00
H3       0.61255    1.13172    0.28495   1.00
C4       1.00024    0.50030    0.72915   1.00
C4       0.99976    0.49970    0.77085   1.00
C3       1.03371    0.48942    0.70751   1.00
C3       1.01797    0.46966    0.79252   1.00
C3       0.96682    0.51104    0.70738   1.00
C3       0.98167    0.52980    0.79259   1.00
C2       1.00012    0.49990    0.64482   1.00
C2       1.00012    0.49990    0.85518   1.00
C3a      1.03380    0.48918    0.66599   1.00
C3       1.01809    0.46982    0.83382   1.00
C3       0.96683    0.51082    0.66611   1.00
C3a      0.98173    0.53007    0.83403   1.00
H1       1.06005    0.48134    0.72294   1.00
H1       1.03194    0.44563    0.77750   1.00
C5       1.07005    0.47760    0.64410   1.00
H1       1.03232    0.44625    0.84933   1.00
H1       0.94056    0.51894    0.65056   1.00
C5       0.96190    0.56296    0.85535   1.00
H1       0.96828    0.55408    0.77747   1.00
H1       0.94013    0.51894    0.72230   1.00
H2       0.93024    0.56221    0.84837   1.00
H2       0.96470    0.55941    0.88747   1.00
N1       0.97872    0.60050    0.84395   1.00
C6       0.97771    0.61653    0.80810   1.00
C6       0.99772    0.62551    0.86757   1.00
C6       0.99644    0.65215    0.80873   1.00
C6       1.00917    0.65785    0.84656   1.00
H3       0.96417    0.60327    0.78281   1.00
H3       1.00310    0.62055    0.89831   1.00
H3       1.00034    0.67180    0.78436   1.00
H3       1.02500    0.68280    0.85758   1.00
H2       1.06392    0.47877    0.61228   1.00
H2       1.09438    0.49819    0.65001   1.00
N1       1.08214    0.43831    0.65523   1.00
C6       1.08517    0.40503    0.63078   1.00
C6       1.09363    0.42531    0.69285   1.00
C6       1.09777    0.37371    0.65277   1.00
C6       1.10296    0.38617    0.69091   1.00
H3       1.07849    0.40453    0.59992   1.00
H3       1.09445    0.44337    0.71876   1.00
H3       1.10267    0.34445    0.64205   1.00
H3       1.11255    0.36828    0.71505   1.00
C4       1.00030    0.72915    0.50024   1.00
C4       0.99970    0.77085    0.49976   1.00
C3       0.98942    0.70751    0.53371   1.00
C3       0.96966    0.79252    0.51797   1.00
C3       1.01104    0.70738    0.46682   1.00
C3       1.02980    0.79259    0.48167   1.00
C2       0.99990    0.64482    0.50012   1.00
C2       0.99990    0.85518    0.50012   1.00
C3a      0.98918    0.66599    0.53380   1.00
C3       0.96982    0.83382    0.51809   1.00
C3       1.01082    0.66611    0.46683   1.00
C3a      1.03007    0.83403    0.48173   1.00
H1       0.98134    0.72294    0.56005   1.00
H1       0.94563    0.77750    0.53194   1.00
C5       0.97760    0.64410    0.57005   1.00
H1       0.94625    0.84933    0.53232   1.00
H1       1.01894    0.65056    0.44056   1.00
C5       1.06296    0.85535    0.46190   1.00
H1       1.05408    0.77747    0.46828   1.00
H1       1.01894    0.72230    0.44013   1.00
H2       1.06221    0.84837    0.43024   1.00
H2       1.05941    0.88747    0.46470   1.00
N1       1.10050    0.84395    0.47872   1.00
C6       1.11653    0.80810    0.47771   1.00
C6       1.12551    0.86757    0.49772   1.00
C6       1.15215    0.80873    0.49644   1.00
C6       1.15785    0.84656    0.50917   1.00
H3       1.10327    0.78281    0.46417   1.00
H3       1.12055    0.89831    0.50310   1.00
H3       1.17180    0.78436    0.50034   1.00
H3       1.18280    0.85758    0.52500   1.00
H2       0.97877    0.61228    0.56392   1.00
H2       0.99819    0.65001    0.59438   1.00
N1       0.93831    0.65523    0.58214   1.00
C6       0.90503    0.63078    0.58517   1.00
C6       0.92531    0.69285    0.59363   1.00
C6       0.87371    0.65277    0.59777   1.00
C6       0.88617    0.69091    0.60296   1.00
H3       0.90453    0.59992    0.57849   1.00
H3       0.94337    0.71876    0.59445   1.00
H3       0.84445    0.64205    0.60267   1.00
H3       0.86828    0.71505    0.61255   1.00
C4       0.77085    0.50024    0.49970   1.00
C4       0.72915    0.49976    0.50030   1.00
C3       0.79249    0.53371    0.51058   1.00
C3       0.70748    0.51797    0.53034   1.00
C3       0.79262    0.46682    0.48896   1.00
C3       0.70741    0.48167    0.47020   1.00
C2       0.85518    0.50012    0.50010   1.00
C2       0.64482    0.50012    0.50010   1.00
C3a      0.83401    0.53380    0.51082   1.00
C3       0.66618    0.51809    0.53018   1.00
C3       0.83389    0.46683    0.48918   1.00
C3a      0.66597    0.48173    0.46993   1.00
H1       0.77706    0.56005    0.51866   1.00
H1       0.72250    0.53194    0.55437   1.00
C5       0.85590    0.57005    0.52240   1.00
H1       0.65067    0.53232    0.55375   1.00
H1       0.84944    0.44056    0.48106   1.00
C5       0.64465    0.46190    0.43704   1.00
H1       0.72253    0.46828    0.44592   1.00
H1       0.77770    0.44013    0.48106   1.00
H2       0.65163    0.43024    0.43779   1.00
H2       0.61253    0.46470    0.44059   1.00
N1       0.65605    0.47872    0.39950   1.00
C6       0.69190    0.47771    0.38347   1.00
C6       0.63243    0.49772    0.37449   1.00
C6       0.69127    0.49644    0.34785   1.00
C6       0.65344    0.50917    0.34215   1.00
H3       0.71719    0.46417    0.39673   1.00
H3       0.60169    0.50310    0.37945   1.00
H3       0.71564    0.50034    0.32820   1.00
H3       0.64242    0.52500    0.31720   1.00
H2       0.88772    0.56392    0.52123   1.00
H2       0.84999    0.59438    0.50181   1.00
N1       0.84477    0.58214    0.56169   1.00
C6       0.86922    0.58517    0.59497   1.00
C6       0.80715    0.59363    0.57469   1.00
C6       0.84723    0.59777    0.62629   1.00
C6       0.80909    0.60296    0.61383   1.00
H3       0.90008    0.57849    0.59547   1.00
H3       0.78124    0.59445    0.55663   1.00
H3       0.85795    0.60267    0.65555   1.00
H3       0.78495    0.61255    0.63172   1.00
C4       1.22915    0.50024    0.50030   1.00
C4       1.27085    0.49976    0.49970   1.00
C3       1.20751    0.53371    0.48942   1.00
C3       1.29252    0.51797    0.46966   1.00
C3       1.20738    0.46682    0.51104   1.00
C3       1.29259    0.48167    0.52980   1.00
C2       1.14482    0.50012    0.49990   1.00
C2       1.35518    0.50012    0.49990   1.00
C3a      1.16599    0.53380    0.48918   1.00
C3       1.33382    0.51809    0.46982   1.00
C3       1.16611    0.46683    0.51082   1.00
C3a      1.33403    0.48173    0.53007   1.00
H1       1.22294    0.56005    0.48134   1.00
H1       1.27750    0.53194    0.44563   1.00
C5       1.14410    0.57005    0.47760   1.00
H1       1.34933    0.53232    0.44625   1.00
H1       1.15056    0.44056    0.51894   1.00
C5       1.35535    0.46190    0.56296   1.00
H1       1.27747    0.46828    0.55408   1.00
H1       1.22230    0.44013    0.51894   1.00
H2       1.34837    0.43024    0.56221   1.00
H2       1.38747    0.46470    0.55941   1.00
N1       1.34395    0.47872    0.60050   1.00
C6       1.30810    0.47771    0.61653   1.00
C6       1.36757    0.49772    0.62551   1.00
C6       1.30873    0.49644    0.65215   1.00
C6       1.34656    0.50917    0.65785   1.00
H3       1.28281    0.46417    0.60327   1.00
H3       1.39831    0.50310    0.62055   1.00
H3       1.28436    0.50034    0.67180   1.00
H3       1.35758    0.52500    0.68280   1.00
H2       1.11228    0.56392    0.47877   1.00
H2       1.15001    0.59438    0.49819   1.00
N1       1.15523    0.58214    0.43831   1.00
C6       1.13078    0.58517    0.40503   1.00
C6       1.19285    0.59363    0.42531   1.00
C6       1.15277    0.59777    0.37371   1.00
C6       1.19091    0.60296    0.38617   1.00
H3       1.09992    0.57849    0.40453   1.00
H3       1.21876    0.59445    0.44337   1.00
H3       1.14205    0.60267    0.34445   1.00
H3       1.21505    0.61255    0.36828   1.00
C4       0.99970    0.27085    0.50024   1.00
C4       1.00030    0.22915    0.49976   1.00
C3       1.01058    0.29249    0.53371   1.00
C3       1.03034    0.20748    0.51797   1.00
C3       0.98896    0.29262    0.46682   1.00
C3       0.97020    0.20741    0.48167   1.00
C2       1.00010    0.35518    0.50012   1.00
C2       1.00010    0.14482    0.50012   1.00
C3a      1.01082    0.33401    0.53380   1.00
C3       1.03018    0.16618    0.51809   1.00
C3       0.98918    0.33389    0.46683   1.00
C3a      0.96993    0.16597    0.48173   1.00
H1       1.01866    0.27706    0.56005   1.00
H1       1.05437    0.22250    0.53194   1.00
C5       1.02240    0.35590    0.57005   1.00
H1       1.05375    0.15067    0.53232   1.00
H1       0.98106    0.34944    0.44056   1.00
C5       0.93704    0.14465    0.46190   1.00
H1       0.94592    0.22253    0.46828   1.00
H1       0.98106    0.27770    0.44013   1.00
H2       0.93779    0.15163    0.43024   1.00
H2       0.94059    0.11253    0.46470   1.00
N1       0.89950    0.15605    0.47872   1.00
C6       0.88347    0.19190    0.47771   1.00
C6       0.87449    0.13243    0.49772   1.00
C6       0.84785    0.19127    0.49644   1.00
C6       0.84215    0.15344    0.50917   1.00
H3       0.89673    0.21719    0.46417   1.00
H3       0.87945    0.10169    0.50310   1.00
H3       0.82820    0.21564    0.50034   1.00
H3       0.81720    0.14242    0.52500   1.00
H2       1.02123    0.38772    0.56392   1.00
H2       1.00181    0.34999    0.59438   1.00
N1       1.06169    0.34477    0.58214   1.00
C6       1.09497    0.36922    0.58517   1.00
C6       1.07469    0.30715    0.59363   1.00
C6       1.12629    0.34723    0.59777   1.00
C6       1.11383    0.30909    0.60296   1.00
H3       1.09547    0.40008    0.57849   1.00
H3       1.05663    0.28124    0.59445   1.00
H3       1.15555    0.35795    0.60267   1.00
H3       1.13172    0.28495    0.61255   1.00
C4       1.00024    0.49970    0.27085   1.00
C4       0.99976    0.50030    0.22915   1.00
C3       1.03371    0.51058    0.29249   1.00
C3       1.01797    0.53034    0.20748   1.00
C3       0.96682    0.48896    0.29262   1.00
C3       0.98167    0.47020    0.20741   1.00
C2       1.00012    0.50010    0.35518   1.00
C2       1.00012    0.50010    0.14482   1.00
C3a      1.03380    0.51082    0.33401   1.00
C3       1.01809    0.53018    0.16618   1.00
C3       0.96683    0.48918    0.33389   1.00
C3a      0.98173    0.46993    0.16597   1.00
H1       1.06005    0.51866    0.27706   1.00
H1       1.03194    0.55437    0.22250   1.00
C5       1.07005    0.52240    0.35590   1.00
H1       1.03232    0.55375    0.15067   1.00
H1       0.94056    0.48106    0.34944   1.00
C5       0.96190    0.43704    0.14465   1.00
H1       0.96828    0.44592    0.22253   1.00
H1       0.94013    0.48106    0.27770   1.00
H2       0.93024    0.43779    0.15163   1.00
H2       0.96470    0.44059    0.11253   1.00
N1       0.97872    0.39950    0.15605   1.00
C6       0.97771    0.38347    0.19190   1.00
C6       0.99772    0.37449    0.13243   1.00
C6       0.99644    0.34785    0.19127   1.00
C6       1.00917    0.34215    0.15344   1.00
H3       0.96417    0.39673    0.21719   1.00
H3       1.00310    0.37945    0.10169   1.00
H3       1.00034    0.32820    0.21564   1.00
H3       1.02500    0.31720    0.14242   1.00
H2       1.06392    0.52123    0.38772   1.00
H2       1.09438    0.50181    0.34999   1.00
N1       1.08214    0.56169    0.34477   1.00
C6       1.08517    0.59497    0.36922   1.00
C6       1.09363    0.57469    0.30715   1.00
C6       1.09777    0.62629    0.34723   1.00
C6       1.10296    0.61383    0.30909   1.00
H3       1.07849    0.59547    0.40008   1.00
H3       1.09445    0.55663    0.28124   1.00
H3       1.10267    0.65555    0.35795   1.00
H3       1.11255    0.63172    0.28495   1.00
