data_IRMOF10_SG202_interpen_Ligand3lp_label_r.

_audit_creation_method             'generated by an auxiliary program of Tobunporous'

_symmetry_space_group_name_H-M     'P 1'
_symmetry_Int_Tables_number        1
_symmetry_cell_setting             triclinic

_cell_length_a                    34.2800
_cell_length_b                    34.2800
_cell_length_c                    34.2800
_cell_angle_alpha                 90.0000
_cell_angle_beta                  90.0000
_cell_angle_gamma                 90.0000

loop_
_atom_site_label
_atom_site_fract_x
_atom_site_fract_y
_atom_site_fract_z
_atom_site_occupancy
O1       0.75000    0.75000    0.75000   1.00
Zn1      0.71720    0.78280    0.78280   1.00
Zn1      0.78280    0.71720    0.78280   1.00
Zn1      0.78280    0.78280    0.71720   1.00
Zn1      0.71720    0.71720    0.71720   1.00
O2       0.72650    0.77350    0.83820   1.00
O2       0.72650    0.83820    0.77350   1.00
O2       0.66180    0.77350    0.77350   1.00
O2       0.77350    0.72650    0.83820   1.00
O2       0.83820    0.72650    0.77350   1.00
O2       0.77350    0.66180    0.77350   1.00
O2       0.77350    0.83820    0.72650   1.00
O2       0.83820    0.77350    0.72650   1.00
O2       0.77350    0.77350    0.66180   1.00
O2       0.66180    0.72650    0.72650   1.00
O2       0.72650    0.66180    0.72650   1.00
O2       0.72650    0.72650    0.66180   1.00
C1       0.75000    0.75000    0.85520   1.00
C1       0.75000    0.85520    0.75000   1.00
C1       0.64480    0.75000    0.75000   1.00
C1       0.85520    0.75000    0.75000   1.00
C1       0.75000    0.64480    0.75000   1.00
C1       0.75000    0.75000    0.64480   1.00
O1       0.25000    0.25000    0.75000   1.00
Zn1      0.21720    0.28280    0.78280   1.00
Zn1      0.28280    0.21720    0.78280   1.00
Zn1      0.28280    0.28280    0.71720   1.00
Zn1      0.21720    0.21720    0.71720   1.00
O2       0.22650    0.27350    0.83820   1.00
O2       0.22650    0.33820    0.77350   1.00
O2       0.16180    0.27350    0.77350   1.00
O2       0.27350    0.22650    0.83820   1.00
O2       0.33820    0.22650    0.77350   1.00
O2       0.27350    0.16180    0.77350   1.00
O2       0.27350    0.33820    0.72650   1.00
O2       0.33820    0.27350    0.72650   1.00
O2       0.27350    0.27350    0.66180   1.00
O2       0.16180    0.22650    0.72650   1.00
O2       0.22650    0.16180    0.72650   1.00
O2       0.22650    0.22650    0.66180   1.00
C1       0.25000    0.25000    0.85520   1.00
C1       0.25000    0.35520    0.75000   1.00
C1       0.14480    0.25000    0.75000   1.00
C1       0.35520    0.25000    0.75000   1.00
C1       0.25000    0.14480    0.75000   1.00
C1       0.25000    0.25000    0.64480   1.00
O1       0.25000    0.75000    0.25000   1.00
Zn1      0.21720    0.78280    0.28280   1.00
Zn1      0.28280    0.71720    0.28280   1.00
Zn1      0.28280    0.78280    0.21720   1.00
Zn1      0.21720    0.71720    0.21720   1.00
O2       0.22650    0.77350    0.33820   1.00
O2       0.22650    0.83820    0.27350   1.00
O2       0.16180    0.77350    0.27350   1.00
O2       0.27350    0.72650    0.33820   1.00
O2       0.33820    0.72650    0.27350   1.00
O2       0.27350    0.66180    0.27350   1.00
O2       0.27350    0.83820    0.22650   1.00
O2       0.33820    0.77350    0.22650   1.00
O2       0.27350    0.77350    0.16180   1.00
O2       0.16180    0.72650    0.22650   1.00
O2       0.22650    0.66180    0.22650   1.00
O2       0.22650    0.72650    0.16180   1.00
C1       0.25000    0.75000    0.35520   1.00
C1       0.25000    0.85520    0.25000   1.00
C1       0.14480    0.75000    0.25000   1.00
C1       0.35520    0.75000    0.25000   1.00
C1       0.25000    0.64480    0.25000   1.00
C1       0.25000    0.75000    0.14480   1.00
O1       0.75000    0.25000    0.25000   1.00
Zn1      0.71720    0.28280    0.28280   1.00
Zn1      0.78280    0.21720    0.28280   1.00
Zn1      0.78280    0.28280    0.21720   1.00
Zn1      0.71720    0.21720    0.21720   1.00
O2       0.72650    0.27350    0.33820   1.00
O2       0.72650    0.33820    0.27350   1.00
O2       0.66180    0.27350    0.27350   1.00
O2       0.77350    0.22650    0.33820   1.00
O2       0.83820    0.22650    0.27350   1.00
O2       0.77350    0.16180    0.27350   1.00
O2       0.77350    0.33820    0.22650   1.00
O2       0.83820    0.27350    0.22650   1.00
O2       0.77350    0.27350    0.16180   1.00
O2       0.66180    0.22650    0.22650   1.00
O2       0.72650    0.16180    0.22650   1.00
O2       0.72650    0.22650    0.16180   1.00
C1       0.75000    0.25000    0.35520   1.00
C1       0.75000    0.35520    0.25000   1.00
C1       0.64480    0.25000    0.25000   1.00
C1       0.85520    0.25000    0.25000   1.00
C1       0.75000    0.14480    0.25000   1.00
C1       0.75000    0.25000    0.14480   1.00
O1       0.25000    0.25000    0.25000   1.00
Zn1      0.28280    0.21720    0.21720   1.00
Zn1      0.21720    0.28280    0.21720   1.00
Zn1      0.21720    0.21720    0.28280   1.00
Zn1      0.28280    0.28280    0.28280   1.00
O2       0.27350    0.22650    0.16180   1.00
O2       0.27350    0.16180    0.22650   1.00
O2       0.33820    0.22650    0.22650   1.00
O2       0.22650    0.27350    0.16180   1.00
O2       0.16180    0.27350    0.22650   1.00
O2       0.22650    0.33820    0.22650   1.00
O2       0.22650    0.16180    0.27350   1.00
O2       0.16180    0.22650    0.27350   1.00
O2       0.22650    0.22650    0.33820   1.00
O2       0.33820    0.27350    0.27350   1.00
O2       0.27350    0.33820    0.27350   1.00
O2       0.27350    0.27350    0.33820   1.00
C1       0.25000    0.25000    0.14480   1.00
C1       0.25000    0.14480    0.25000   1.00
C1       0.35520    0.25000    0.25000   1.00
C1       0.14480    0.25000    0.25000   1.00
C1       0.25000    0.35520    0.25000   1.00
C1       0.25000    0.25000    0.35520   1.00
O1       0.75000    0.75000    0.25000   1.00
Zn1      0.78280    0.71720    0.21720   1.00
Zn1      0.71720    0.78280    0.21720   1.00
Zn1      0.71720    0.71720    0.28280   1.00
Zn1      0.78280    0.78280    0.28280   1.00
O2       0.77350    0.72650    0.16180   1.00
O2       0.77350    0.66180    0.22650   1.00
O2       0.83820    0.72650    0.22650   1.00
O2       0.72650    0.77350    0.16180   1.00
O2       0.66180    0.77350    0.22650   1.00
O2       0.72650    0.83820    0.22650   1.00
O2       0.72650    0.66180    0.27350   1.00
O2       0.66180    0.72650    0.27350   1.00
O2       0.72650    0.72650    0.33820   1.00
O2       0.83820    0.77350    0.27350   1.00
O2       0.77350    0.83820    0.27350   1.00
O2       0.77350    0.77350    0.33820   1.00
C1       0.75000    0.75000    0.14480   1.00
C1       0.75000    0.64480    0.25000   1.00
C1       0.85520    0.75000    0.25000   1.00
C1       0.64480    0.75000    0.25000   1.00
C1       0.75000    0.85520    0.25000   1.00
C1       0.75000    0.75000    0.35520   1.00
O1       0.75000    0.25000    0.75000   1.00
Zn1      0.78280    0.21720    0.71720   1.00
Zn1      0.71720    0.28280    0.71720   1.00
Zn1      0.71720    0.21720    0.78280   1.00
Zn1      0.78280    0.28280    0.78280   1.00
O2       0.77350    0.22650    0.66180   1.00
O2       0.77350    0.16180    0.72650   1.00
O2       0.83820    0.22650    0.72650   1.00
O2       0.72650    0.27350    0.66180   1.00
O2       0.66180    0.27350    0.72650   1.00
O2       0.72650    0.33820    0.72650   1.00
O2       0.72650    0.16180    0.77350   1.00
O2       0.66180    0.22650    0.77350   1.00
O2       0.72650    0.22650    0.83820   1.00
O2       0.83820    0.27350    0.77350   1.00
O2       0.77350    0.33820    0.77350   1.00
O2       0.77350    0.27350    0.83820   1.00
C1       0.75000    0.25000    0.64480   1.00
C1       0.75000    0.14480    0.75000   1.00
C1       0.85520    0.25000    0.75000   1.00
C1       0.64480    0.25000    0.75000   1.00
C1       0.75000    0.35520    0.75000   1.00
C1       0.75000    0.25000    0.85520   1.00
O1       0.25000    0.75000    0.75000   1.00
Zn1      0.28280    0.71720    0.71720   1.00
Zn1      0.21720    0.78280    0.71720   1.00
Zn1      0.21720    0.71720    0.78280   1.00
Zn1      0.28280    0.78280    0.78280   1.00
O2       0.27350    0.72650    0.66180   1.00
O2       0.27350    0.66180    0.72650   1.00
O2       0.33820    0.72650    0.72650   1.00
O2       0.22650    0.77350    0.66180   1.00
O2       0.16180    0.77350    0.72650   1.00
O2       0.22650    0.83820    0.72650   1.00
O2       0.22650    0.66180    0.77350   1.00
O2       0.16180    0.72650    0.77350   1.00
O2       0.22650    0.72650    0.83820   1.00
O2       0.33820    0.77350    0.77350   1.00
O2       0.27350    0.83820    0.77350   1.00
O2       0.27350    0.77350    0.83820   1.00
C1       0.25000    0.75000    0.64480   1.00
C1       0.25000    0.64480    0.75000   1.00
C1       0.35520    0.75000    0.75000   1.00
C1       0.14480    0.75000    0.75000   1.00
C1       0.25000    0.85520    0.75000   1.00
C1       0.25000    0.75000    0.85520   1.00
O1       1.00000    1.00000    1.00000   1.00
Zn1      0.96720    1.03280    1.03280   1.00
Zn1      1.03280    0.96720    1.03280   1.00
Zn1      1.03280    1.03280    0.96720   1.00
Zn1      0.96720    0.96720    0.96720   1.00
O2       0.97650    1.02350    1.08820   1.00
O2       0.97650    1.08820    1.02350   1.00
O2       0.91180    1.02350    1.02350   1.00
O2       1.02350    0.97650    1.08820   1.00
O2       1.08820    0.97650    1.02350   1.00
O2       1.02350    0.91180    1.02350   1.00
O2       1.02350    1.08820    0.97650   1.00
O2       1.08820    1.02350    0.97650   1.00
O2       1.02350    1.02350    0.91180   1.00
O2       0.91180    0.97650    0.97650   1.00
O2       0.97650    0.91180    0.97650   1.00
O2       0.97650    0.97650    0.91180   1.00
C1       1.00000    1.00000    1.10520   1.00
C1       1.00000    1.10520    1.00000   1.00
C1       0.89480    1.00000    1.00000   1.00
C1       1.10520    1.00000    1.00000   1.00
C1       1.00000    0.89480    1.00000   1.00
C1       1.00000    1.00000    0.89480   1.00
O1       0.50000    0.50000    1.00000   1.00
Zn1      0.46720    0.53280    1.03280   1.00
Zn1      0.53280    0.46720    1.03280   1.00
Zn1      0.53280    0.53280    0.96720   1.00
Zn1      0.46720    0.46720    0.96720   1.00
O2       0.47650    0.52350    1.08820   1.00
O2       0.47650    0.58820    1.02350   1.00
O2       0.41180    0.52350    1.02350   1.00
O2       0.52350    0.47650    1.08820   1.00
O2       0.58820    0.47650    1.02350   1.00
O2       0.52350    0.41180    1.02350   1.00
O2       0.52350    0.58820    0.97650   1.00
O2       0.58820    0.52350    0.97650   1.00
O2       0.52350    0.52350    0.91180   1.00
O2       0.41180    0.47650    0.97650   1.00
O2       0.47650    0.41180    0.97650   1.00
O2       0.47650    0.47650    0.91180   1.00
C1       0.50000    0.50000    1.10520   1.00
C1       0.50000    0.60520    1.00000   1.00
C1       0.39480    0.50000    1.00000   1.00
C1       0.60520    0.50000    1.00000   1.00
C1       0.50000    0.39480    1.00000   1.00
C1       0.50000    0.50000    0.89480   1.00
O1       0.50000    1.00000    0.50000   1.00
Zn1      0.46720    1.03280    0.53280   1.00
Zn1      0.53280    0.96720    0.53280   1.00
Zn1      0.53280    1.03280    0.46720   1.00
Zn1      0.46720    0.96720    0.46720   1.00
O2       0.47650    1.02350    0.58820   1.00
O2       0.47650    1.08820    0.52350   1.00
O2       0.41180    1.02350    0.52350   1.00
O2       0.52350    0.97650    0.58820   1.00
O2       0.58820    0.97650    0.52350   1.00
O2       0.52350    0.91180    0.52350   1.00
O2       0.52350    1.08820    0.47650   1.00
O2       0.58820    1.02350    0.47650   1.00
O2       0.52350    1.02350    0.41180   1.00
O2       0.41180    0.97650    0.47650   1.00
O2       0.47650    0.91180    0.47650   1.00
O2       0.47650    0.97650    0.41180   1.00
C1       0.50000    1.00000    0.60520   1.00
C1       0.50000    1.10520    0.50000   1.00
C1       0.39480    1.00000    0.50000   1.00
C1       0.60520    1.00000    0.50000   1.00
C1       0.50000    0.89480    0.50000   1.00
C1       0.50000    1.00000    0.39480   1.00
O1       1.00000    0.50000    0.50000   1.00
Zn1      0.96720    0.53280    0.53280   1.00
Zn1      1.03280    0.46720    0.53280   1.00
Zn1      1.03280    0.53280    0.46720   1.00
Zn1      0.96720    0.46720    0.46720   1.00
O2       0.97650    0.52350    0.58820   1.00
O2       0.97650    0.58820    0.52350   1.00
O2       0.91180    0.52350    0.52350   1.00
O2       1.02350    0.47650    0.58820   1.00
O2       1.08820    0.47650    0.52350   1.00
O2       1.02350    0.41180    0.52350   1.00
O2       1.02350    0.58820    0.47650   1.00
O2       1.08820    0.52350    0.47650   1.00
O2       1.02350    0.52350    0.41180   1.00
O2       0.91180    0.47650    0.47650   1.00
O2       0.97650    0.41180    0.47650   1.00
O2       0.97650    0.47650    0.41180   1.00
C1       1.00000    0.50000    0.60520   1.00
C1       1.00000    0.60520    0.50000   1.00
C1       0.89480    0.50000    0.50000   1.00
C1       1.10520    0.50000    0.50000   1.00
C1       1.00000    0.39480    0.50000   1.00
C1       1.00000    0.50000    0.39480   1.00
O1       0.50000    0.50000    0.50000   1.00
Zn1      0.53280    0.46720    0.46720   1.00
Zn1      0.46720    0.53280    0.46720   1.00
Zn1      0.46720    0.46720    0.53280   1.00
Zn1      0.53280    0.53280    0.53280   1.00
O2       0.52350    0.47650    0.41180   1.00
O2       0.52350    0.41180    0.47650   1.00
O2       0.58820    0.47650    0.47650   1.00
O2       0.47650    0.52350    0.41180   1.00
O2       0.41180    0.52350    0.47650   1.00
O2       0.47650    0.58820    0.47650   1.00
O2       0.47650    0.41180    0.52350   1.00
O2       0.41180    0.47650    0.52350   1.00
O2       0.47650    0.47650    0.58820   1.00
O2       0.58820    0.52350    0.52350   1.00
O2       0.52350    0.58820    0.52350   1.00
O2       0.52350    0.52350    0.58820   1.00
C1       0.50000    0.50000    0.39480   1.00
C1       0.50000    0.39480    0.50000   1.00
C1       0.60520    0.50000    0.50000   1.00
C1       0.39480    0.50000    0.50000   1.00
C1       0.50000    0.60520    0.50000   1.00
C1       0.50000    0.50000    0.60520   1.00
O1       1.00000    1.00000    0.50000   1.00
Zn1      1.03280    0.96720    0.46720   1.00
Zn1      0.96720    1.03280    0.46720   1.00
Zn1      0.96720    0.96720    0.53280   1.00
Zn1      1.03280    1.03280    0.53280   1.00
O2       1.02350    0.97650    0.41180   1.00
O2       1.02350    0.91180    0.47650   1.00
O2       1.08820    0.97650    0.47650   1.00
O2       0.97650    1.02350    0.41180   1.00
O2       0.91180    1.02350    0.47650   1.00
O2       0.97650    1.08820    0.47650   1.00
O2       0.97650    0.91180    0.52350   1.00
O2       0.91180    0.97650    0.52350   1.00
O2       0.97650    0.97650    0.58820   1.00
O2       1.08820    1.02350    0.52350   1.00
O2       1.02350    1.08820    0.52350   1.00
O2       1.02350    1.02350    0.58820   1.00
C1       1.00000    1.00000    0.39480   1.00
C1       1.00000    0.89480    0.50000   1.00
C1       1.10520    1.00000    0.50000   1.00
C1       0.89480    1.00000    0.50000   1.00
C1       1.00000    1.10520    0.50000   1.00
C1       1.00000    1.00000    0.60520   1.00
O1       1.00000    0.50000    1.00000   1.00
Zn1      1.03280    0.46720    0.96720   1.00
Zn1      0.96720    0.53280    0.96720   1.00
Zn1      0.96720    0.46720    1.03280   1.00
Zn1      1.03280    0.53280    1.03280   1.00
O2       1.02350    0.47650    0.91180   1.00
O2       1.02350    0.41180    0.97650   1.00
O2       1.08820    0.47650    0.97650   1.00
O2       0.97650    0.52350    0.91180   1.00
O2       0.91180    0.52350    0.97650   1.00
O2       0.97650    0.58820    0.97650   1.00
O2       0.97650    0.41180    1.02350   1.00
O2       0.91180    0.47650    1.02350   1.00
O2       0.97650    0.47650    1.08820   1.00
O2       1.08820    0.52350    1.02350   1.00
O2       1.02350    0.58820    1.02350   1.00
O2       1.02350    0.52350    1.08820   1.00
C1       1.00000    0.50000    0.89480   1.00
C1       1.00000    0.39480    1.00000   1.00
C1       1.10520    0.50000    1.00000   1.00
C1       0.89480    0.50000    1.00000   1.00
C1       1.00000    0.60520    1.00000   1.00
C1       1.00000    0.50000    1.10520   1.00
O1       0.50000    1.00000    1.00000   1.00
Zn1      0.53280    0.96720    0.96720   1.00
Zn1      0.46720    1.03280    0.96720   1.00
Zn1      0.46720    0.96720    1.03280   1.00
Zn1      0.53280    1.03280    1.03280   1.00
O2       0.52350    0.97650    0.91180   1.00
O2       0.52350    0.91180    0.97650   1.00
O2       0.58820    0.97650    0.97650   1.00
O2       0.47650    1.02350    0.91180   1.00
O2       0.41180    1.02350    0.97650   1.00
O2       0.47650    1.08820    0.97650   1.00
O2       0.47650    0.91180    1.02350   1.00
O2       0.41180    0.97650    1.02350   1.00
O2       0.47650    0.97650    1.08820   1.00
O2       0.58820    1.02350    1.02350   1.00
O2       0.52350    1.08820    1.02350   1.00
O2       0.52350    1.02350    1.08820   1.00
C1       0.50000    1.00000    0.89480   1.00
C1       0.50000    0.89480    1.00000   1.00
C1       0.60520    1.00000    1.00000   1.00
C1       0.39480    1.00000    1.00000   1.00
C1       0.50000    1.10520    1.00000   1.00
C1       0.50000    1.00000    1.10520   1.00
C4       0.74719    0.74883    1.02084   1.00
C4       0.74745    0.74951    0.97912   1.00
C3       0.71310    0.75471    1.04364   1.00
C3       0.71447    0.75963    0.95616   1.00
C3       0.78296    0.74253    1.04123   1.00
C3       0.78244    0.73947    0.95886   1.00
C2       0.74943    0.74895    1.10512   1.00
C2       0.75057    0.75105    0.89488   1.00
C3       0.71419    0.75500    1.08462   1.00
C3       0.71586    0.76004    0.91519   1.00
C3       0.78333    0.74219    1.08258   1.00
C3       0.78369    0.74168    0.91762   1.00
H1       0.68645    0.75883    1.03115   1.00
H1       0.68854    0.76725    0.96852   1.00
C5       0.81811    0.73643    1.02020   1.00
C5       0.81608    0.72762    0.97980   1.00
H1       0.68866    0.75969    1.09955   1.00
H1       0.69101    0.76726    0.90010   1.00
H1       0.80900    0.73656    1.09680   1.00
H1       0.80962    0.73683    0.90368   1.00
O3       0.85332    0.73688    1.03961   1.00
O3       0.84739    0.71052    0.96099   1.00
Si1      0.87830    0.77736    1.04247   1.00
Si1      0.84647    0.66362    0.95279   1.00
C6       0.91413    0.76043    1.07538   1.00
C6       0.89841    0.78635    0.99598   1.00
C6       0.85145    0.81649    1.06253   1.00
C6       0.80449    0.63717    0.96693   1.00
C6       0.85223    0.66058    0.90198   1.00
C6       0.88836    0.64351    0.97477   1.00
C6       0.89855    0.73776    1.11194   1.00
H2       0.92955    0.73869    1.05791   1.00
C6       0.94656    0.78851    1.09147   1.00
H2       0.89967    0.75705    0.98358   1.00
C6       0.87428    0.81133    0.96634   1.00
C6       0.94101    0.80261    0.99336   1.00
H2       0.83829    0.80308    1.08831   1.00
C6       0.87513    0.85254    1.07772   1.00
C6       0.81705    0.83501    1.03849   1.00
C6       0.79173    0.63894    1.01071   1.00
C6       0.76618    0.64079    0.94225   1.00
H2       0.81359    0.60703    0.96212   1.00
H2       0.82470    0.67173    0.89051   1.00
C6       0.88461    0.68721    0.88378   1.00
C6       0.85786    0.61905    0.88393   1.00
H2       0.91161    0.64922    0.95375   1.00
C6       0.90231    0.66315    1.01336   1.00
C6       0.88911    0.59846    0.98244   1.00
H2       0.88019    0.71312    1.10346   1.00
H2       0.88137    0.75680    1.13090   1.00
H2       0.92257    0.72575    1.12917   1.00
H2       0.97369    0.77235    1.09608   1.00
H2       0.95303    0.81252    1.07178   1.00
H2       0.93870    0.80117    1.11964   1.00
H2       0.88564    0.80779    0.93672   1.00
H2       0.84380    0.80250    0.96532   1.00
H2       0.87572    0.84233    0.97352   1.00
H2       0.96163    0.78374    1.00862   1.00
H2       0.95104    0.80404    0.96308   1.00
H2       0.94287    0.83202    1.00550   1.00
H2       0.89455    0.86388    1.05514   1.00
H2       0.85605    0.87637    1.08708   1.00
H2       0.89229    0.84512    1.10332   1.00
H2       0.82712    0.85812    1.01902   1.00
H2       0.80140    0.81411    1.02068   1.00
H2       0.79567    0.84808    1.05828   1.00
H2       0.77439    0.66485    1.01688   1.00
H2       0.77368    0.61368    1.01809   1.00
H2       0.81658    0.63867    1.03048   1.00
H2       0.74489    0.61877    0.95125   1.00
H2       0.75222    0.66908    0.94574   1.00
H2       0.77138    0.63599    0.91122   1.00
H2       0.88155    0.68835    0.85202   1.00
H2       0.88232    0.71721    0.89435   1.00
H2       0.91389    0.67657    0.89035   1.00
H2       0.83567    0.59864    0.89416   1.00
H2       0.85537    0.62031    0.85212   1.00
H2       0.88660    0.60714    0.89085   1.00
H2       0.88067    0.66073    1.03656   1.00
H2       0.92963    0.65048    1.02381   1.00
H2       0.90773    0.69395    1.00834   1.00
H2       0.91846    0.58881    0.99044   1.00
H2       0.86947    0.59035    1.00622   1.00
H2       0.88077    0.58194    0.95657   1.00
C4       0.74883    1.02084    0.74719   1.00
C4       0.74951    0.97912    0.74745   1.00
C3       0.75471    1.04364    0.71310   1.00
C3       0.75963    0.95616    0.71447   1.00
C3       0.74253    1.04123    0.78296   1.00
C3       0.73947    0.95886    0.78244   1.00
C2       0.74895    1.10512    0.74943   1.00
C2       0.75105    0.89488    0.75057   1.00
C3       0.75500    1.08462    0.71419   1.00
C3       0.76004    0.91519    0.71586   1.00
C3       0.74219    1.08258    0.78333   1.00
C3       0.74168    0.91762    0.78369   1.00
H1       0.75883    1.03115    0.68645   1.00
H1       0.76725    0.96852    0.68854   1.00
C5       0.73643    1.02020    0.81811   1.00
C5       0.72762    0.97980    0.81608   1.00
H1       0.75969    1.09955    0.68866   1.00
H1       0.76726    0.90010    0.69101   1.00
H1       0.73656    1.09680    0.80900   1.00
H1       0.73683    0.90368    0.80962   1.00
O3       0.73688    1.03961    0.85332   1.00
O3       0.71052    0.96099    0.84739   1.00
Si1      0.77736    1.04247    0.87830   1.00
Si1      0.66362    0.95279    0.84647   1.00
C6       0.76043    1.07538    0.91413   1.00
C6       0.78635    0.99598    0.89841   1.00
C6       0.81649    1.06253    0.85145   1.00
C6       0.63717    0.96693    0.80449   1.00
C6       0.66058    0.90198    0.85223   1.00
C6       0.64351    0.97477    0.88836   1.00
C6       0.73776    1.11194    0.89855   1.00
H2       0.73869    1.05791    0.92955   1.00
C6       0.78851    1.09147    0.94656   1.00
H2       0.75705    0.98358    0.89967   1.00
C6       0.81133    0.96634    0.87428   1.00
C6       0.80261    0.99336    0.94101   1.00
H2       0.80308    1.08831    0.83829   1.00
C6       0.85254    1.07772    0.87513   1.00
C6       0.83501    1.03849    0.81705   1.00
C6       0.63894    1.01071    0.79173   1.00
C6       0.64079    0.94225    0.76618   1.00
H2       0.60703    0.96212    0.81359   1.00
H2       0.67173    0.89051    0.82470   1.00
C6       0.68721    0.88378    0.88461   1.00
C6       0.61905    0.88393    0.85786   1.00
H2       0.64922    0.95375    0.91161   1.00
C6       0.66315    1.01336    0.90231   1.00
C6       0.59846    0.98244    0.88911   1.00
H2       0.71312    1.10346    0.88019   1.00
H2       0.75680    1.13090    0.88137   1.00
H2       0.72575    1.12917    0.92257   1.00
H2       0.77235    1.09608    0.97369   1.00
H2       0.81252    1.07178    0.95303   1.00
H2       0.80117    1.11964    0.93870   1.00
H2       0.80779    0.93672    0.88564   1.00
H2       0.80250    0.96532    0.84380   1.00
H2       0.84233    0.97352    0.87572   1.00
H2       0.78374    1.00862    0.96163   1.00
H2       0.80404    0.96308    0.95104   1.00
H2       0.83202    1.00550    0.94287   1.00
H2       0.86388    1.05514    0.89455   1.00
H2       0.87637    1.08708    0.85605   1.00
H2       0.84512    1.10332    0.89229   1.00
H2       0.85812    1.01902    0.82712   1.00
H2       0.81411    1.02068    0.80140   1.00
H2       0.84808    1.05828    0.79567   1.00
H2       0.66485    1.01688    0.77439   1.00
H2       0.61368    1.01809    0.77368   1.00
H2       0.63867    1.03048    0.81658   1.00
H2       0.61877    0.95125    0.74489   1.00
H2       0.66908    0.94574    0.75222   1.00
H2       0.63599    0.91122    0.77138   1.00
H2       0.68835    0.85202    0.88155   1.00
H2       0.71721    0.89435    0.88232   1.00
H2       0.67657    0.89035    0.91389   1.00
H2       0.59864    0.89416    0.83567   1.00
H2       0.62031    0.85212    0.85537   1.00
H2       0.60714    0.89085    0.88660   1.00
H2       0.66073    1.03656    0.88067   1.00
H2       0.65048    1.02381    0.92963   1.00
H2       0.69395    1.00834    0.90773   1.00
H2       0.58881    0.99044    0.91846   1.00
H2       0.59035    1.00622    0.86947   1.00
H2       0.58194    0.95657    0.88077   1.00
C4       0.47916    0.74719    0.75117   1.00
C4       0.52088    0.74745    0.75049   1.00
C3       0.45636    0.71310    0.74529   1.00
C3       0.54384    0.71447    0.74037   1.00
C3       0.45877    0.78296    0.75747   1.00
C3       0.54114    0.78244    0.76053   1.00
C2       0.39488    0.74943    0.75105   1.00
C2       0.60512    0.75057    0.74895   1.00
C3       0.41538    0.71419    0.74500   1.00
C3       0.58481    0.71586    0.73996   1.00
C3       0.41742    0.78333    0.75781   1.00
C3       0.58238    0.78369    0.75832   1.00
H1       0.46885    0.68645    0.74117   1.00
H1       0.53148    0.68854    0.73275   1.00
C5       0.47980    0.81811    0.76357   1.00
C5       0.52020    0.81608    0.77238   1.00
H1       0.40045    0.68866    0.74031   1.00
H1       0.59990    0.69101    0.73274   1.00
H1       0.40320    0.80900    0.76344   1.00
H1       0.59632    0.80962    0.76317   1.00
O3       0.46039    0.85332    0.76312   1.00
O3       0.53901    0.84739    0.78948   1.00
Si1      0.45753    0.87830    0.72264   1.00
Si1      0.54721    0.84647    0.83638   1.00
C6       0.42462    0.91413    0.73957   1.00
C6       0.50402    0.89841    0.71365   1.00
C6       0.43747    0.85145    0.68351   1.00
C6       0.53307    0.80449    0.86283   1.00
C6       0.59802    0.85223    0.83942   1.00
C6       0.52523    0.88836    0.85649   1.00
C6       0.38806    0.89855    0.76224   1.00
H2       0.44209    0.92955    0.76131   1.00
C6       0.40853    0.94656    0.71149   1.00
H2       0.51642    0.89967    0.74295   1.00
C6       0.53366    0.87428    0.68867   1.00
C6       0.50664    0.94101    0.69739   1.00
H2       0.41169    0.83829    0.69692   1.00
C6       0.42228    0.87513    0.64746   1.00
C6       0.46151    0.81705    0.66499   1.00
C6       0.48929    0.79173    0.86106   1.00
C6       0.55775    0.76618    0.85921   1.00
H2       0.53788    0.81359    0.89297   1.00
H2       0.60949    0.82470    0.82827   1.00
C6       0.61622    0.88461    0.81279   1.00
C6       0.61607    0.85786    0.88095   1.00
H2       0.54625    0.91161    0.85078   1.00
C6       0.48664    0.90231    0.83685   1.00
C6       0.51756    0.88911    0.90154   1.00
H2       0.39654    0.88019    0.78688   1.00
H2       0.36910    0.88137    0.74320   1.00
H2       0.37083    0.92257    0.77425   1.00
H2       0.40392    0.97369    0.72765   1.00
H2       0.42822    0.95303    0.68748   1.00
H2       0.38036    0.93870    0.69883   1.00
H2       0.56328    0.88564    0.69221   1.00
H2       0.53468    0.84380    0.69750   1.00
H2       0.52648    0.87572    0.65767   1.00
H2       0.49138    0.96163    0.71626   1.00
H2       0.53692    0.95104    0.69596   1.00
H2       0.49450    0.94287    0.66798   1.00
H2       0.44486    0.89455    0.63612   1.00
H2       0.41292    0.85605    0.62363   1.00
H2       0.39668    0.89229    0.65488   1.00
H2       0.48098    0.82712    0.64188   1.00
H2       0.47932    0.80140    0.68589   1.00
H2       0.44172    0.79567    0.65192   1.00
H2       0.48312    0.77439    0.83515   1.00
H2       0.48191    0.77368    0.88632   1.00
H2       0.46952    0.81658    0.86133   1.00
H2       0.54875    0.74489    0.88123   1.00
H2       0.55426    0.75222    0.83092   1.00
H2       0.58878    0.77138    0.86401   1.00
H2       0.64798    0.88155    0.81165   1.00
H2       0.60565    0.88232    0.78279   1.00
H2       0.60965    0.91389    0.82343   1.00
H2       0.60584    0.83567    0.90136   1.00
H2       0.64788    0.85537    0.87969   1.00
H2       0.60915    0.88660    0.89286   1.00
H2       0.46344    0.88067    0.83927   1.00
H2       0.47619    0.92963    0.84952   1.00
H2       0.49166    0.90773    0.80605   1.00
H2       0.50956    0.91846    0.91119   1.00
H2       0.49378    0.86947    0.90965   1.00
H2       0.54343    0.88077    0.91806   1.00
C4       1.02084    0.74719    0.74883   1.00
C4       0.97912    0.74745    0.74951   1.00
C3       1.04364    0.71310    0.75471   1.00
C3       0.95616    0.71447    0.75963   1.00
C3       1.04123    0.78296    0.74253   1.00
C3       0.95886    0.78244    0.73947   1.00
C2       1.10512    0.74943    0.74895   1.00
C2       0.89488    0.75057    0.75105   1.00
C3       1.08462    0.71419    0.75500   1.00
C3       0.91519    0.71586    0.76004   1.00
C3       1.08258    0.78333    0.74219   1.00
C3       0.91762    0.78369    0.74168   1.00
H1       1.03115    0.68645    0.75883   1.00
H1       0.96852    0.68854    0.76725   1.00
C5       1.02020    0.81811    0.73643   1.00
C5       0.97980    0.81608    0.72762   1.00
H1       1.09955    0.68866    0.75969   1.00
H1       0.90010    0.69101    0.76726   1.00
H1       1.09680    0.80900    0.73656   1.00
H1       0.90368    0.80962    0.73683   1.00
O3       1.03961    0.85332    0.73688   1.00
O3       0.96099    0.84739    0.71052   1.00
Si1      1.04247    0.87830    0.77736   1.00
Si1      0.95279    0.84647    0.66362   1.00
C6       1.07538    0.91413    0.76043   1.00
C6       0.99598    0.89841    0.78635   1.00
C6       1.06253    0.85145    0.81649   1.00
C6       0.96693    0.80449    0.63717   1.00
C6       0.90198    0.85223    0.66058   1.00
C6       0.97477    0.88836    0.64351   1.00
C6       1.11194    0.89855    0.73776   1.00
H2       1.05791    0.92955    0.73869   1.00
C6       1.09147    0.94656    0.78851   1.00
H2       0.98358    0.89967    0.75705   1.00
C6       0.96634    0.87428    0.81133   1.00
C6       0.99336    0.94101    0.80261   1.00
H2       1.08831    0.83829    0.80308   1.00
C6       1.07772    0.87513    0.85254   1.00
C6       1.03849    0.81705    0.83501   1.00
C6       1.01071    0.79173    0.63894   1.00
C6       0.94225    0.76618    0.64079   1.00
H2       0.96212    0.81359    0.60703   1.00
H2       0.89051    0.82470    0.67173   1.00
C6       0.88378    0.88461    0.68721   1.00
C6       0.88393    0.85786    0.61905   1.00
H2       0.95375    0.91161    0.64922   1.00
C6       1.01336    0.90231    0.66315   1.00
C6       0.98244    0.88911    0.59846   1.00
H2       1.10346    0.88019    0.71312   1.00
H2       1.13090    0.88137    0.75680   1.00
H2       1.12917    0.92257    0.72575   1.00
H2       1.09608    0.97369    0.77235   1.00
H2       1.07178    0.95303    0.81252   1.00
H2       1.11964    0.93870    0.80117   1.00
H2       0.93672    0.88564    0.80779   1.00
H2       0.96532    0.84380    0.80250   1.00
H2       0.97352    0.87572    0.84233   1.00
H2       1.00862    0.96163    0.78374   1.00
H2       0.96308    0.95104    0.80404   1.00
H2       1.00550    0.94287    0.83202   1.00
H2       1.05514    0.89455    0.86388   1.00
H2       1.08708    0.85605    0.87637   1.00
H2       1.10332    0.89229    0.84512   1.00
H2       1.01902    0.82712    0.85812   1.00
H2       1.02068    0.80140    0.81411   1.00
H2       1.05828    0.79567    0.84808   1.00
H2       1.01688    0.77439    0.66485   1.00
H2       1.01809    0.77368    0.61368   1.00
H2       1.03048    0.81658    0.63867   1.00
H2       0.95125    0.74489    0.61877   1.00
H2       0.94574    0.75222    0.66908   1.00
H2       0.91122    0.77138    0.63599   1.00
H2       0.85202    0.88155    0.68835   1.00
H2       0.89435    0.88232    0.71721   1.00
H2       0.89035    0.91389    0.67657   1.00
H2       0.89416    0.83567    0.59864   1.00
H2       0.85212    0.85537    0.62031   1.00
H2       0.89085    0.88660    0.60714   1.00
H2       1.03656    0.88067    0.66073   1.00
H2       1.02381    0.92963    0.65048   1.00
H2       1.00834    0.90773    0.69395   1.00
H2       0.99044    0.91846    0.58881   1.00
H2       1.00622    0.86947    0.59035   1.00
H2       0.95657    0.88077    0.58194   1.00
C4       0.75117    0.47916    0.74719   1.00
C4       0.75049    0.52088    0.74745   1.00
C3       0.74529    0.45636    0.71310   1.00
C3       0.74037    0.54384    0.71447   1.00
C3       0.75747    0.45877    0.78296   1.00
C3       0.76053    0.54114    0.78244   1.00
C2       0.75105    0.39488    0.74943   1.00
C2       0.74895    0.60512    0.75057   1.00
C3       0.74500    0.41538    0.71419   1.00
C3       0.73996    0.58481    0.71586   1.00
C3       0.75781    0.41742    0.78333   1.00
C3       0.75832    0.58238    0.78369   1.00
H1       0.74117    0.46885    0.68645   1.00
H1       0.73275    0.53148    0.68854   1.00
C5       0.76357    0.47980    0.81811   1.00
C5       0.77238    0.52020    0.81608   1.00
H1       0.74031    0.40045    0.68866   1.00
H1       0.73274    0.59990    0.69101   1.00
H1       0.76344    0.40320    0.80900   1.00
H1       0.76317    0.59632    0.80962   1.00
O3       0.76312    0.46039    0.85332   1.00
O3       0.78948    0.53901    0.84739   1.00
Si1      0.72264    0.45753    0.87830   1.00
Si1      0.83638    0.54721    0.84647   1.00
C6       0.73957    0.42462    0.91413   1.00
C6       0.71365    0.50402    0.89841   1.00
C6       0.68351    0.43747    0.85145   1.00
C6       0.86283    0.53307    0.80449   1.00
C6       0.83942    0.59802    0.85223   1.00
C6       0.85649    0.52523    0.88836   1.00
C6       0.76224    0.38806    0.89855   1.00
H2       0.76131    0.44209    0.92955   1.00
C6       0.71149    0.40853    0.94656   1.00
H2       0.74295    0.51642    0.89967   1.00
C6       0.68867    0.53366    0.87428   1.00
C6       0.69739    0.50664    0.94101   1.00
H2       0.69692    0.41169    0.83829   1.00
C6       0.64746    0.42228    0.87513   1.00
C6       0.66499    0.46151    0.81705   1.00
C6       0.86106    0.48929    0.79173   1.00
C6       0.85921    0.55775    0.76618   1.00
H2       0.89297    0.53788    0.81359   1.00
H2       0.82827    0.60949    0.82470   1.00
C6       0.81279    0.61622    0.88461   1.00
C6       0.88095    0.61607    0.85786   1.00
H2       0.85078    0.54625    0.91161   1.00
C6       0.83685    0.48664    0.90231   1.00
C6       0.90154    0.51756    0.88911   1.00
H2       0.78688    0.39654    0.88019   1.00
H2       0.74320    0.36910    0.88137   1.00
H2       0.77425    0.37083    0.92257   1.00
H2       0.72765    0.40392    0.97369   1.00
H2       0.68748    0.42822    0.95303   1.00
H2       0.69883    0.38036    0.93870   1.00
H2       0.69221    0.56328    0.88564   1.00
H2       0.69750    0.53468    0.84380   1.00
H2       0.65767    0.52648    0.87572   1.00
H2       0.71626    0.49138    0.96163   1.00
H2       0.69596    0.53692    0.95104   1.00
H2       0.66798    0.49450    0.94287   1.00
H2       0.63612    0.44486    0.89455   1.00
H2       0.62363    0.41292    0.85605   1.00
H2       0.65488    0.39668    0.89229   1.00
H2       0.64188    0.48098    0.82712   1.00
H2       0.68589    0.47932    0.80140   1.00
H2       0.65192    0.44172    0.79567   1.00
H2       0.83515    0.48312    0.77439   1.00
H2       0.88632    0.48191    0.77368   1.00
H2       0.86133    0.46952    0.81658   1.00
H2       0.88123    0.54875    0.74489   1.00
H2       0.83092    0.55426    0.75222   1.00
H2       0.86401    0.58878    0.77138   1.00
H2       0.81165    0.64798    0.88155   1.00
H2       0.78279    0.60565    0.88232   1.00
H2       0.82343    0.60965    0.91389   1.00
H2       0.90136    0.60584    0.83567   1.00
H2       0.87969    0.64788    0.85537   1.00
H2       0.89286    0.60915    0.88660   1.00
H2       0.83927    0.46344    0.88067   1.00
H2       0.84952    0.47619    0.92963   1.00
H2       0.80605    0.49166    0.90773   1.00
H2       0.91119    0.50956    0.91846   1.00
H2       0.90965    0.49378    0.86947   1.00
H2       0.91806    0.54343    0.88077   1.00
C4       0.74719    0.75117    0.47916   1.00
C4       0.74745    0.75049    0.52088   1.00
C3       0.71310    0.74529    0.45636   1.00
C3       0.71447    0.74037    0.54384   1.00
C3       0.78296    0.75747    0.45877   1.00
C3       0.78244    0.76053    0.54114   1.00
C2       0.74943    0.75105    0.39488   1.00
C2       0.75057    0.74895    0.60512   1.00
C3       0.71419    0.74500    0.41538   1.00
C3       0.71586    0.73996    0.58481   1.00
C3       0.78333    0.75781    0.41742   1.00
C3       0.78369    0.75832    0.58238   1.00
H1       0.68645    0.74117    0.46885   1.00
H1       0.68854    0.73275    0.53148   1.00
C5       0.81811    0.76357    0.47980   1.00
C5       0.81608    0.77238    0.52020   1.00
H1       0.68866    0.74031    0.40045   1.00
H1       0.69101    0.73274    0.59990   1.00
H1       0.80900    0.76344    0.40320   1.00
H1       0.80962    0.76317    0.59632   1.00
O3       0.85332    0.76312    0.46039   1.00
O3       0.84739    0.78948    0.53901   1.00
Si1      0.87830    0.72264    0.45753   1.00
Si1      0.84647    0.83638    0.54721   1.00
C6       0.91413    0.73957    0.42462   1.00
C6       0.89841    0.71365    0.50402   1.00
C6       0.85145    0.68351    0.43747   1.00
C6       0.80449    0.86283    0.53307   1.00
C6       0.85223    0.83942    0.59802   1.00
C6       0.88836    0.85649    0.52523   1.00
C6       0.89855    0.76224    0.38806   1.00
H2       0.92955    0.76131    0.44209   1.00
C6       0.94656    0.71149    0.40853   1.00
H2       0.89967    0.74295    0.51642   1.00
C6       0.87428    0.68867    0.53366   1.00
C6       0.94101    0.69739    0.50664   1.00
H2       0.83829    0.69692    0.41169   1.00
C6       0.87513    0.64746    0.42228   1.00
C6       0.81705    0.66499    0.46151   1.00
C6       0.79173    0.86106    0.48929   1.00
C6       0.76618    0.85921    0.55775   1.00
H2       0.81359    0.89297    0.53788   1.00
H2       0.82470    0.82827    0.60949   1.00
C6       0.88461    0.81279    0.61622   1.00
C6       0.85786    0.88095    0.61607   1.00
H2       0.91161    0.85078    0.54625   1.00
C6       0.90231    0.83685    0.48664   1.00
C6       0.88911    0.90154    0.51756   1.00
H2       0.88019    0.78688    0.39654   1.00
H2       0.88137    0.74320    0.36910   1.00
H2       0.92257    0.77425    0.37083   1.00
H2       0.97369    0.72765    0.40392   1.00
H2       0.95303    0.68748    0.42822   1.00
H2       0.93870    0.69883    0.38036   1.00
H2       0.88564    0.69221    0.56328   1.00
H2       0.84380    0.69750    0.53468   1.00
H2       0.87572    0.65767    0.52648   1.00
H2       0.96163    0.71626    0.49138   1.00
H2       0.95104    0.69596    0.53692   1.00
H2       0.94287    0.66798    0.49450   1.00
H2       0.89455    0.63612    0.44486   1.00
H2       0.85605    0.62363    0.41292   1.00
H2       0.89229    0.65488    0.39668   1.00
H2       0.82712    0.64188    0.48098   1.00
H2       0.80140    0.68589    0.47932   1.00
H2       0.79567    0.65192    0.44172   1.00
H2       0.77439    0.83515    0.48312   1.00
H2       0.77368    0.88632    0.48191   1.00
H2       0.81658    0.86133    0.46952   1.00
H2       0.74489    0.88123    0.54875   1.00
H2       0.75222    0.83092    0.55426   1.00
H2       0.77138    0.86401    0.58878   1.00
H2       0.88155    0.81165    0.64798   1.00
H2       0.88232    0.78279    0.60565   1.00
H2       0.91389    0.82343    0.60965   1.00
H2       0.83567    0.90136    0.60584   1.00
H2       0.85537    0.87969    0.64788   1.00
H2       0.88660    0.89286    0.60915   1.00
H2       0.88067    0.83927    0.46344   1.00
H2       0.92963    0.84952    0.47619   1.00
H2       0.90773    0.80605    0.49166   1.00
H2       0.91846    0.91119    0.50956   1.00
H2       0.86947    0.90965    0.49378   1.00
H2       0.88077    0.91806    0.54343   1.00
C4       0.24719    0.24883    1.02084   1.00
C4       0.24745    0.24951    0.97912   1.00
C3       0.21310    0.25471    1.04364   1.00
C3       0.21447    0.25963    0.95616   1.00
C3       0.28296    0.24253    1.04123   1.00
C3       0.28244    0.23947    0.95886   1.00
C2       0.24943    0.24895    1.10512   1.00
C2       0.25057    0.25105    0.89488   1.00
C3       0.21419    0.25500    1.08462   1.00
C3       0.21586    0.26004    0.91519   1.00
C3       0.28333    0.24219    1.08258   1.00
C3       0.28369    0.24168    0.91762   1.00
H1       0.18645    0.25883    1.03115   1.00
H1       0.18854    0.26725    0.96852   1.00
C5       0.31811    0.23643    1.02020   1.00
C5       0.31608    0.22762    0.97980   1.00
H1       0.18866    0.25969    1.09955   1.00
H1       0.19101    0.26726    0.90010   1.00
H1       0.30900    0.23656    1.09680   1.00
H1       0.30962    0.23683    0.90368   1.00
O3       0.35332    0.23688    1.03961   1.00
O3       0.34739    0.21052    0.96099   1.00
Si1      0.37830    0.27736    1.04247   1.00
Si1      0.34647    0.16362    0.95279   1.00
C6       0.41413    0.26043    1.07538   1.00
C6       0.39841    0.28635    0.99598   1.00
C6       0.35145    0.31649    1.06253   1.00
C6       0.30449    0.13717    0.96693   1.00
C6       0.35223    0.16058    0.90198   1.00
C6       0.38836    0.14351    0.97477   1.00
C6       0.39855    0.23776    1.11194   1.00
H2       0.42955    0.23869    1.05791   1.00
C6       0.44656    0.28851    1.09147   1.00
H2       0.39967    0.25705    0.98358   1.00
C6       0.37428    0.31133    0.96634   1.00
C6       0.44101    0.30261    0.99336   1.00
H2       0.33829    0.30308    1.08831   1.00
C6       0.37513    0.35254    1.07772   1.00
C6       0.31705    0.33501    1.03849   1.00
C6       0.29173    0.13894    1.01071   1.00
C6       0.26618    0.14079    0.94225   1.00
H2       0.31359    0.10703    0.96212   1.00
H2       0.32470    0.17173    0.89051   1.00
C6       0.38461    0.18721    0.88378   1.00
C6       0.35786    0.11905    0.88393   1.00
H2       0.41161    0.14922    0.95375   1.00
C6       0.40231    0.16315    1.01336   1.00
C6       0.38911    0.09846    0.98244   1.00
H2       0.38019    0.21312    1.10346   1.00
H2       0.38137    0.25680    1.13090   1.00
H2       0.42257    0.22575    1.12917   1.00
H2       0.47369    0.27235    1.09608   1.00
H2       0.45303    0.31252    1.07178   1.00
H2       0.43870    0.30117    1.11964   1.00
H2       0.38564    0.30779    0.93672   1.00
H2       0.34380    0.30250    0.96532   1.00
H2       0.37572    0.34233    0.97352   1.00
H2       0.46163    0.28374    1.00862   1.00
H2       0.45104    0.30404    0.96308   1.00
H2       0.44287    0.33202    1.00550   1.00
H2       0.39455    0.36388    1.05514   1.00
H2       0.35605    0.37637    1.08708   1.00
H2       0.39229    0.34512    1.10332   1.00
H2       0.32712    0.35812    1.01902   1.00
H2       0.30140    0.31411    1.02068   1.00
H2       0.29567    0.34808    1.05828   1.00
H2       0.27439    0.16485    1.01688   1.00
H2       0.27368    0.11368    1.01809   1.00
H2       0.31658    0.13867    1.03048   1.00
H2       0.24489    0.11877    0.95125   1.00
H2       0.25222    0.16908    0.94574   1.00
H2       0.27138    0.13599    0.91122   1.00
H2       0.38155    0.18835    0.85202   1.00
H2       0.38232    0.21721    0.89435   1.00
H2       0.41389    0.17657    0.89035   1.00
H2       0.33567    0.09864    0.89416   1.00
H2       0.35537    0.12031    0.85212   1.00
H2       0.38660    0.10714    0.89085   1.00
H2       0.38067    0.16073    1.03656   1.00
H2       0.42963    0.15048    1.02381   1.00
H2       0.40773    0.19395    1.00834   1.00
H2       0.41846    0.08881    0.99044   1.00
H2       0.36947    0.09035    1.00622   1.00
H2       0.38077    0.08194    0.95657   1.00
C4       0.24883    0.52084    0.74719   1.00
C4       0.24951    0.47912    0.74745   1.00
C3       0.25471    0.54364    0.71310   1.00
C3       0.25963    0.45616    0.71447   1.00
C3       0.24253    0.54123    0.78296   1.00
C3       0.23947    0.45886    0.78244   1.00
C2       0.24895    0.60512    0.74943   1.00
C2       0.25105    0.39488    0.75057   1.00
C3       0.25500    0.58462    0.71419   1.00
C3       0.26004    0.41519    0.71586   1.00
C3       0.24219    0.58258    0.78333   1.00
C3       0.24168    0.41762    0.78369   1.00
H1       0.25883    0.53115    0.68645   1.00
H1       0.26725    0.46852    0.68854   1.00
C5       0.23643    0.52020    0.81811   1.00
C5       0.22762    0.47980    0.81608   1.00
H1       0.25969    0.59955    0.68866   1.00
H1       0.26726    0.40010    0.69101   1.00
H1       0.23656    0.59680    0.80900   1.00
H1       0.23683    0.40368    0.80962   1.00
O3       0.23688    0.53961    0.85332   1.00
O3       0.21052    0.46099    0.84739   1.00
Si1      0.27736    0.54247    0.87830   1.00
Si1      0.16362    0.45279    0.84647   1.00
C6       0.26043    0.57538    0.91413   1.00
C6       0.28635    0.49598    0.89841   1.00
C6       0.31649    0.56253    0.85145   1.00
C6       0.13717    0.46693    0.80449   1.00
C6       0.16058    0.40198    0.85223   1.00
C6       0.14351    0.47477    0.88836   1.00
C6       0.23776    0.61194    0.89855   1.00
H2       0.23869    0.55791    0.92955   1.00
C6       0.28851    0.59147    0.94656   1.00
H2       0.25705    0.48358    0.89967   1.00
C6       0.31133    0.46634    0.87428   1.00
C6       0.30261    0.49336    0.94101   1.00
H2       0.30308    0.58831    0.83829   1.00
C6       0.35254    0.57772    0.87513   1.00
C6       0.33501    0.53849    0.81705   1.00
C6       0.13894    0.51071    0.79173   1.00
C6       0.14079    0.44225    0.76618   1.00
H2       0.10703    0.46212    0.81359   1.00
H2       0.17173    0.39051    0.82470   1.00
C6       0.18721    0.38378    0.88461   1.00
C6       0.11905    0.38393    0.85786   1.00
H2       0.14922    0.45375    0.91161   1.00
C6       0.16315    0.51336    0.90231   1.00
C6       0.09846    0.48244    0.88911   1.00
H2       0.21312    0.60346    0.88019   1.00
H2       0.25680    0.63090    0.88137   1.00
H2       0.22575    0.62917    0.92257   1.00
H2       0.27235    0.59608    0.97369   1.00
H2       0.31252    0.57178    0.95303   1.00
H2       0.30117    0.61964    0.93870   1.00
H2       0.30779    0.43672    0.88564   1.00
H2       0.30250    0.46532    0.84380   1.00
H2       0.34233    0.47352    0.87572   1.00
H2       0.28374    0.50862    0.96163   1.00
H2       0.30404    0.46308    0.95104   1.00
H2       0.33202    0.50550    0.94287   1.00
H2       0.36388    0.55514    0.89455   1.00
H2       0.37637    0.58708    0.85605   1.00
H2       0.34512    0.60332    0.89229   1.00
H2       0.35812    0.51902    0.82712   1.00
H2       0.31411    0.52068    0.80140   1.00
H2       0.34808    0.55828    0.79567   1.00
H2       0.16485    0.51688    0.77439   1.00
H2       0.11368    0.51809    0.77368   1.00
H2       0.13867    0.53048    0.81658   1.00
H2       0.11877    0.45125    0.74489   1.00
H2       0.16908    0.44574    0.75222   1.00
H2       0.13599    0.41122    0.77138   1.00
H2       0.18835    0.35202    0.88155   1.00
H2       0.21721    0.39435    0.88232   1.00
H2       0.17657    0.39035    0.91389   1.00
H2       0.09864    0.39416    0.83567   1.00
H2       0.12031    0.35212    0.85537   1.00
H2       0.10714    0.39085    0.88660   1.00
H2       0.16073    0.53656    0.88067   1.00
H2       0.15048    0.52381    0.92963   1.00
H2       0.19395    0.50834    0.90773   1.00
H2       0.08881    0.49044    0.91846   1.00
H2       0.09035    0.50622    0.86947   1.00
H2       0.08194    0.45657    0.88077   1.00
C4       -0.02084   0.24719    0.75117   1.00
C4       0.02088    0.24745    0.75049   1.00
C3       -0.04364   0.21310    0.74529   1.00
C3       0.04384    0.21447    0.74037   1.00
C3       -0.04123   0.28296    0.75747   1.00
C3       0.04114    0.28244    0.76053   1.00
C2       -0.10512   0.24943    0.75105   1.00
C2       0.10512    0.25057    0.74895   1.00
C3       -0.08462   0.21419    0.74500   1.00
C3       0.08481    0.21586    0.73996   1.00
C3       -0.08258   0.28333    0.75781   1.00
C3       0.08238    0.28369    0.75832   1.00
H1       -0.03115   0.18645    0.74117   1.00
H1       0.03148    0.18854    0.73275   1.00
C5       -0.02020   0.31811    0.76357   1.00
C5       0.02020    0.31608    0.77238   1.00
H1       -0.09955   0.18866    0.74031   1.00
H1       0.09990    0.19101    0.73274   1.00
H1       -0.09680   0.30900    0.76344   1.00
H1       0.09632    0.30962    0.76317   1.00
O3       -0.03961   0.35332    0.76312   1.00
O3       0.03901    0.34739    0.78948   1.00
Si1      -0.04247   0.37830    0.72264   1.00
Si1      0.04721    0.34647    0.83638   1.00
C6       -0.07538   0.41413    0.73957   1.00
C6       0.00402    0.39841    0.71365   1.00
C6       -0.06253   0.35145    0.68351   1.00
C6       0.03307    0.30449    0.86283   1.00
C6       0.09802    0.35223    0.83942   1.00
C6       0.02523    0.38836    0.85649   1.00
C6       -0.11194   0.39855    0.76224   1.00
H2       -0.05791   0.42955    0.76131   1.00
C6       -0.09147   0.44656    0.71149   1.00
H2       0.01642    0.39967    0.74295   1.00
C6       0.03366    0.37428    0.68867   1.00
C6       0.00664    0.44101    0.69739   1.00
H2       -0.08831   0.33829    0.69692   1.00
C6       -0.07772   0.37513    0.64746   1.00
C6       -0.03849   0.31705    0.66499   1.00
C6       -0.01071   0.29173    0.86106   1.00
C6       0.05775    0.26618    0.85921   1.00
H2       0.03788    0.31359    0.89297   1.00
H2       0.10949    0.32470    0.82827   1.00
C6       0.11622    0.38461    0.81279   1.00
C6       0.11607    0.35786    0.88095   1.00
H2       0.04625    0.41161    0.85078   1.00
C6       -0.01336   0.40231    0.83685   1.00
C6       0.01756    0.38911    0.90154   1.00
H2       -0.10346   0.38019    0.78688   1.00
H2       -0.13090   0.38137    0.74320   1.00
H2       -0.12917   0.42257    0.77425   1.00
H2       -0.09608   0.47369    0.72765   1.00
H2       -0.07178   0.45303    0.68748   1.00
H2       -0.11964   0.43870    0.69883   1.00
H2       0.06328    0.38564    0.69221   1.00
H2       0.03468    0.34380    0.69750   1.00
H2       0.02648    0.37572    0.65767   1.00
H2       -0.00862   0.46163    0.71626   1.00
H2       0.03692    0.45104    0.69596   1.00
H2       -0.00550   0.44287    0.66798   1.00
H2       -0.05514   0.39455    0.63612   1.00
H2       -0.08708   0.35605    0.62363   1.00
H2       -0.10332   0.39229    0.65488   1.00
H2       -0.01902   0.32712    0.64188   1.00
H2       -0.02068   0.30140    0.68589   1.00
H2       -0.05828   0.29567    0.65192   1.00
H2       -0.01688   0.27439    0.83515   1.00
H2       -0.01809   0.27368    0.88632   1.00
H2       -0.03048   0.31658    0.86133   1.00
H2       0.04875    0.24489    0.88123   1.00
H2       0.05426    0.25222    0.83092   1.00
H2       0.08878    0.27138    0.86401   1.00
H2       0.14798    0.38155    0.81165   1.00
H2       0.10565    0.38232    0.78279   1.00
H2       0.10965    0.41389    0.82343   1.00
H2       0.10584    0.33567    0.90136   1.00
H2       0.14788    0.35537    0.87969   1.00
H2       0.10915    0.38660    0.89286   1.00
H2       -0.03656   0.38067    0.83927   1.00
H2       -0.02381   0.42963    0.84952   1.00
H2       -0.00834   0.40773    0.80605   1.00
H2       0.00956    0.41846    0.91119   1.00
H2       -0.00622   0.36947    0.90965   1.00
H2       0.04343    0.38077    0.91806   1.00
C4       0.52084    0.24719    0.74883   1.00
C4       0.47912    0.24745    0.74951   1.00
C3       0.54364    0.21310    0.75471   1.00
C3       0.45616    0.21447    0.75963   1.00
C3       0.54123    0.28296    0.74253   1.00
C3       0.45886    0.28244    0.73947   1.00
C2       0.60512    0.24943    0.74895   1.00
C2       0.39488    0.25057    0.75105   1.00
C3       0.58462    0.21419    0.75500   1.00
C3       0.41519    0.21586    0.76004   1.00
C3       0.58258    0.28333    0.74219   1.00
C3       0.41762    0.28369    0.74168   1.00
H1       0.53115    0.18645    0.75883   1.00
H1       0.46852    0.18854    0.76725   1.00
C5       0.52020    0.31811    0.73643   1.00
C5       0.47980    0.31608    0.72762   1.00
H1       0.59955    0.18866    0.75969   1.00
H1       0.40010    0.19101    0.76726   1.00
H1       0.59680    0.30900    0.73656   1.00
H1       0.40368    0.30962    0.73683   1.00
O3       0.53961    0.35332    0.73688   1.00
O3       0.46099    0.34739    0.71052   1.00
Si1      0.54247    0.37830    0.77736   1.00
Si1      0.45279    0.34647    0.66362   1.00
C6       0.57538    0.41413    0.76043   1.00
C6       0.49598    0.39841    0.78635   1.00
C6       0.56253    0.35145    0.81649   1.00
C6       0.46693    0.30449    0.63717   1.00
C6       0.40198    0.35223    0.66058   1.00
C6       0.47477    0.38836    0.64351   1.00
C6       0.61194    0.39855    0.73776   1.00
H2       0.55791    0.42955    0.73869   1.00
C6       0.59147    0.44656    0.78851   1.00
H2       0.48358    0.39967    0.75705   1.00
C6       0.46634    0.37428    0.81133   1.00
C6       0.49336    0.44101    0.80261   1.00
H2       0.58831    0.33829    0.80308   1.00
C6       0.57772    0.37513    0.85254   1.00
C6       0.53849    0.31705    0.83501   1.00
C6       0.51071    0.29173    0.63894   1.00
C6       0.44225    0.26618    0.64079   1.00
H2       0.46212    0.31359    0.60703   1.00
H2       0.39051    0.32470    0.67173   1.00
C6       0.38378    0.38461    0.68721   1.00
C6       0.38393    0.35786    0.61905   1.00
H2       0.45375    0.41161    0.64922   1.00
C6       0.51336    0.40231    0.66315   1.00
C6       0.48244    0.38911    0.59846   1.00
H2       0.60346    0.38019    0.71312   1.00
H2       0.63090    0.38137    0.75680   1.00
H2       0.62917    0.42257    0.72575   1.00
H2       0.59608    0.47369    0.77235   1.00
H2       0.57178    0.45303    0.81252   1.00
H2       0.61964    0.43870    0.80117   1.00
H2       0.43672    0.38564    0.80779   1.00
H2       0.46532    0.34380    0.80250   1.00
H2       0.47352    0.37572    0.84233   1.00
H2       0.50862    0.46163    0.78374   1.00
H2       0.46308    0.45104    0.80404   1.00
H2       0.50550    0.44287    0.83202   1.00
H2       0.55514    0.39455    0.86388   1.00
H2       0.58708    0.35605    0.87637   1.00
H2       0.60332    0.39229    0.84512   1.00
H2       0.51902    0.32712    0.85812   1.00
H2       0.52068    0.30140    0.81411   1.00
H2       0.55828    0.29567    0.84808   1.00
H2       0.51688    0.27439    0.66485   1.00
H2       0.51809    0.27368    0.61368   1.00
H2       0.53048    0.31658    0.63867   1.00
H2       0.45125    0.24489    0.61877   1.00
H2       0.44574    0.25222    0.66908   1.00
H2       0.41122    0.27138    0.63599   1.00
H2       0.35202    0.38155    0.68835   1.00
H2       0.39435    0.38232    0.71721   1.00
H2       0.39035    0.41389    0.67657   1.00
H2       0.39416    0.33567    0.59864   1.00
H2       0.35212    0.35537    0.62031   1.00
H2       0.39085    0.38660    0.60714   1.00
H2       0.53656    0.38067    0.66073   1.00
H2       0.52381    0.42963    0.65048   1.00
H2       0.50834    0.40773    0.69395   1.00
H2       0.49044    0.41846    0.58881   1.00
H2       0.50622    0.36947    0.59035   1.00
H2       0.45657    0.38077    0.58194   1.00
C4       0.25117    -0.02084   0.74719   1.00
C4       0.25049    0.02088    0.74745   1.00
C3       0.24529    -0.04364   0.71310   1.00
C3       0.24037    0.04384    0.71447   1.00
C3       0.25747    -0.04123   0.78296   1.00
C3       0.26053    0.04114    0.78244   1.00
C2       0.25105    -0.10512   0.74943   1.00
C2       0.24895    0.10512    0.75057   1.00
C3       0.24500    -0.08462   0.71419   1.00
C3       0.23996    0.08481    0.71586   1.00
C3       0.25781    -0.08258   0.78333   1.00
C3       0.25832    0.08238    0.78369   1.00
H1       0.24117    -0.03115   0.68645   1.00
H1       0.23275    0.03148    0.68854   1.00
C5       0.26357    -0.02020   0.81811   1.00
C5       0.27238    0.02020    0.81608   1.00
H1       0.24031    -0.09955   0.68866   1.00
H1       0.23274    0.09990    0.69101   1.00
H1       0.26344    -0.09680   0.80900   1.00
H1       0.26317    0.09632    0.80962   1.00
O3       0.26312    -0.03961   0.85332   1.00
O3       0.28948    0.03901    0.84739   1.00
Si1      0.22264    -0.04247   0.87830   1.00
Si1      0.33638    0.04721    0.84647   1.00
C6       0.23957    -0.07538   0.91413   1.00
C6       0.21365    0.00402    0.89841   1.00
C6       0.18351    -0.06253   0.85145   1.00
C6       0.36283    0.03307    0.80449   1.00
C6       0.33942    0.09802    0.85223   1.00
C6       0.35649    0.02523    0.88836   1.00
C6       0.26224    -0.11194   0.89855   1.00
H2       0.26131    -0.05791   0.92955   1.00
C6       0.21149    -0.09147   0.94656   1.00
H2       0.24295    0.01642    0.89967   1.00
C6       0.18867    0.03366    0.87428   1.00
C6       0.19739    0.00664    0.94101   1.00
H2       0.19692    -0.08831   0.83829   1.00
C6       0.14746    -0.07772   0.87513   1.00
C6       0.16499    -0.03849   0.81705   1.00
C6       0.36106    -0.01071   0.79173   1.00
C6       0.35921    0.05775    0.76618   1.00
H2       0.39297    0.03788    0.81359   1.00
H2       0.32827    0.10949    0.82470   1.00
C6       0.31279    0.11622    0.88461   1.00
C6       0.38095    0.11607    0.85786   1.00
H2       0.35078    0.04625    0.91161   1.00
C6       0.33685    -0.01336   0.90231   1.00
C6       0.40154    0.01756    0.88911   1.00
H2       0.28688    -0.10346   0.88019   1.00
H2       0.24320    -0.13090   0.88137   1.00
H2       0.27425    -0.12917   0.92257   1.00
H2       0.22765    -0.09608   0.97369   1.00
H2       0.18748    -0.07178   0.95303   1.00
H2       0.19883    -0.11964   0.93870   1.00
H2       0.19221    0.06328    0.88564   1.00
H2       0.19750    0.03468    0.84380   1.00
H2       0.15767    0.02648    0.87572   1.00
H2       0.21626    -0.00862   0.96163   1.00
H2       0.19596    0.03692    0.95104   1.00
H2       0.16798    -0.00550   0.94287   1.00
H2       0.13612    -0.05514   0.89455   1.00
H2       0.12363    -0.08708   0.85605   1.00
H2       0.15488    -0.10332   0.89229   1.00
H2       0.14188    -0.01902   0.82712   1.00
H2       0.18589    -0.02068   0.80140   1.00
H2       0.15192    -0.05828   0.79567   1.00
H2       0.33515    -0.01688   0.77439   1.00
H2       0.38632    -0.01809   0.77368   1.00
H2       0.36133    -0.03048   0.81658   1.00
H2       0.38123    0.04875    0.74489   1.00
H2       0.33092    0.05426    0.75222   1.00
H2       0.36401    0.08878    0.77138   1.00
H2       0.31165    0.14798    0.88155   1.00
H2       0.28279    0.10565    0.88232   1.00
H2       0.32343    0.10965    0.91389   1.00
H2       0.40136    0.10584    0.83567   1.00
H2       0.37969    0.14788    0.85537   1.00
H2       0.39286    0.10915    0.88660   1.00
H2       0.33927    -0.03656   0.88067   1.00
H2       0.34952    -0.02381   0.92963   1.00
H2       0.30605    -0.00834   0.90773   1.00
H2       0.41119    0.00956    0.91846   1.00
H2       0.40965    -0.00622   0.86947   1.00
H2       0.41806    0.04343    0.88077   1.00
C4       0.24719    0.25117    0.47916   1.00
C4       0.24745    0.25049    0.52088   1.00
C3       0.21310    0.24529    0.45636   1.00
C3       0.21447    0.24037    0.54384   1.00
C3       0.28296    0.25747    0.45877   1.00
C3       0.28244    0.26053    0.54114   1.00
C2       0.24943    0.25105    0.39488   1.00
C2       0.25057    0.24895    0.60512   1.00
C3       0.21419    0.24500    0.41538   1.00
C3       0.21586    0.23996    0.58481   1.00
C3       0.28333    0.25781    0.41742   1.00
C3       0.28369    0.25832    0.58238   1.00
H1       0.18645    0.24117    0.46885   1.00
H1       0.18854    0.23275    0.53148   1.00
C5       0.31811    0.26357    0.47980   1.00
C5       0.31608    0.27238    0.52020   1.00
H1       0.18866    0.24031    0.40045   1.00
H1       0.19101    0.23274    0.59990   1.00
H1       0.30900    0.26344    0.40320   1.00
H1       0.30962    0.26317    0.59632   1.00
O3       0.35332    0.26312    0.46039   1.00
O3       0.34739    0.28948    0.53901   1.00
Si1      0.37830    0.22264    0.45753   1.00
Si1      0.34647    0.33638    0.54721   1.00
C6       0.41413    0.23957    0.42462   1.00
C6       0.39841    0.21365    0.50402   1.00
C6       0.35145    0.18351    0.43747   1.00
C6       0.30449    0.36283    0.53307   1.00
C6       0.35223    0.33942    0.59802   1.00
C6       0.38836    0.35649    0.52523   1.00
C6       0.39855    0.26224    0.38806   1.00
H2       0.42955    0.26131    0.44209   1.00
C6       0.44656    0.21149    0.40853   1.00
H2       0.39967    0.24295    0.51642   1.00
C6       0.37428    0.18867    0.53366   1.00
C6       0.44101    0.19739    0.50664   1.00
H2       0.33829    0.19692    0.41169   1.00
C6       0.37513    0.14746    0.42228   1.00
C6       0.31705    0.16499    0.46151   1.00
C6       0.29173    0.36106    0.48929   1.00
C6       0.26618    0.35921    0.55775   1.00
H2       0.31359    0.39297    0.53788   1.00
H2       0.32470    0.32827    0.60949   1.00
C6       0.38461    0.31279    0.61622   1.00
C6       0.35786    0.38095    0.61607   1.00
H2       0.41161    0.35078    0.54625   1.00
C6       0.40231    0.33685    0.48664   1.00
C6       0.38911    0.40154    0.51756   1.00
H2       0.38019    0.28688    0.39654   1.00
H2       0.38137    0.24320    0.36910   1.00
H2       0.42257    0.27425    0.37083   1.00
H2       0.47369    0.22765    0.40392   1.00
H2       0.45303    0.18748    0.42822   1.00
H2       0.43870    0.19883    0.38036   1.00
H2       0.38564    0.19221    0.56328   1.00
H2       0.34380    0.19750    0.53468   1.00
H2       0.37572    0.15767    0.52648   1.00
H2       0.46163    0.21626    0.49138   1.00
H2       0.45104    0.19596    0.53692   1.00
H2       0.44287    0.16798    0.49450   1.00
H2       0.39455    0.13612    0.44486   1.00
H2       0.35605    0.12363    0.41292   1.00
H2       0.39229    0.15488    0.39668   1.00
H2       0.32712    0.14188    0.48098   1.00
H2       0.30140    0.18589    0.47932   1.00
H2       0.29567    0.15192    0.44172   1.00
H2       0.27439    0.33515    0.48312   1.00
H2       0.27368    0.38632    0.48191   1.00
H2       0.31658    0.36133    0.46952   1.00
H2       0.24489    0.38123    0.54875   1.00
H2       0.25222    0.33092    0.55426   1.00
H2       0.27138    0.36401    0.58878   1.00
H2       0.38155    0.31165    0.64798   1.00
H2       0.38232    0.28279    0.60565   1.00
H2       0.41389    0.32343    0.60965   1.00
H2       0.33567    0.40136    0.60584   1.00
H2       0.35537    0.37969    0.64788   1.00
H2       0.38660    0.39286    0.60915   1.00
H2       0.38067    0.33927    0.46344   1.00
H2       0.42963    0.34952    0.47619   1.00
H2       0.40773    0.30605    0.49166   1.00
H2       0.41846    0.41119    0.50956   1.00
H2       0.36947    0.40965    0.49378   1.00
H2       0.38077    0.41806    0.54343   1.00
C4       0.24719    0.74883    0.52084   1.00
C4       0.24745    0.74951    0.47912   1.00
C3       0.21310    0.75471    0.54364   1.00
C3       0.21447    0.75963    0.45616   1.00
C3       0.28296    0.74253    0.54123   1.00
C3       0.28244    0.73947    0.45886   1.00
C2       0.24943    0.74895    0.60512   1.00
C2       0.25057    0.75105    0.39488   1.00
C3       0.21419    0.75500    0.58462   1.00
C3       0.21586    0.76004    0.41519   1.00
C3       0.28333    0.74219    0.58258   1.00
C3       0.28369    0.74168    0.41762   1.00
H1       0.18645    0.75883    0.53115   1.00
H1       0.18854    0.76725    0.46852   1.00
C5       0.31811    0.73643    0.52020   1.00
C5       0.31608    0.72762    0.47980   1.00
H1       0.18866    0.75969    0.59955   1.00
H1       0.19101    0.76726    0.40010   1.00
H1       0.30900    0.73656    0.59680   1.00
H1       0.30962    0.73683    0.40368   1.00
O3       0.35332    0.73688    0.53961   1.00
O3       0.34739    0.71052    0.46099   1.00
Si1      0.37830    0.77736    0.54247   1.00
Si1      0.34647    0.66362    0.45279   1.00
C6       0.41413    0.76043    0.57538   1.00
C6       0.39841    0.78635    0.49598   1.00
C6       0.35145    0.81649    0.56253   1.00
C6       0.30449    0.63717    0.46693   1.00
C6       0.35223    0.66058    0.40198   1.00
C6       0.38836    0.64351    0.47477   1.00
C6       0.39855    0.73776    0.61194   1.00
H2       0.42955    0.73869    0.55791   1.00
C6       0.44656    0.78851    0.59147   1.00
H2       0.39967    0.75705    0.48358   1.00
C6       0.37428    0.81133    0.46634   1.00
C6       0.44101    0.80261    0.49336   1.00
H2       0.33829    0.80308    0.58831   1.00
C6       0.37513    0.85254    0.57772   1.00
C6       0.31705    0.83501    0.53849   1.00
C6       0.29173    0.63894    0.51071   1.00
C6       0.26618    0.64079    0.44225   1.00
H2       0.31359    0.60703    0.46212   1.00
H2       0.32470    0.67173    0.39051   1.00
C6       0.38461    0.68721    0.38378   1.00
C6       0.35786    0.61905    0.38393   1.00
H2       0.41161    0.64922    0.45375   1.00
C6       0.40231    0.66315    0.51336   1.00
C6       0.38911    0.59846    0.48244   1.00
H2       0.38019    0.71312    0.60346   1.00
H2       0.38137    0.75680    0.63090   1.00
H2       0.42257    0.72575    0.62917   1.00
H2       0.47369    0.77235    0.59608   1.00
H2       0.45303    0.81252    0.57178   1.00
H2       0.43870    0.80117    0.61964   1.00
H2       0.38564    0.80779    0.43672   1.00
H2       0.34380    0.80250    0.46532   1.00
H2       0.37572    0.84233    0.47352   1.00
H2       0.46163    0.78374    0.50862   1.00
H2       0.45104    0.80404    0.46308   1.00
H2       0.44287    0.83202    0.50550   1.00
H2       0.39455    0.86388    0.55514   1.00
H2       0.35605    0.87637    0.58708   1.00
H2       0.39229    0.84512    0.60332   1.00
H2       0.32712    0.85812    0.51902   1.00
H2       0.30140    0.81411    0.52068   1.00
H2       0.29567    0.84808    0.55828   1.00
H2       0.27439    0.66485    0.51688   1.00
H2       0.27368    0.61368    0.51809   1.00
H2       0.31658    0.63867    0.53048   1.00
H2       0.24489    0.61877    0.45125   1.00
H2       0.25222    0.66908    0.44574   1.00
H2       0.27138    0.63599    0.41122   1.00
H2       0.38155    0.68835    0.35202   1.00
H2       0.38232    0.71721    0.39435   1.00
H2       0.41389    0.67657    0.39035   1.00
H2       0.33567    0.59864    0.39416   1.00
H2       0.35537    0.62031    0.35212   1.00
H2       0.38660    0.60714    0.39085   1.00
H2       0.38067    0.66073    0.53656   1.00
H2       0.42963    0.65048    0.52381   1.00
H2       0.40773    0.69395    0.50834   1.00
H2       0.41846    0.58881    0.49044   1.00
H2       0.36947    0.59035    0.50622   1.00
H2       0.38077    0.58194    0.45657   1.00
C4       0.24883    1.02084    0.24719   1.00
C4       0.24951    0.97912    0.24745   1.00
C3       0.25471    1.04364    0.21310   1.00
C3       0.25963    0.95616    0.21447   1.00
C3       0.24253    1.04123    0.28296   1.00
C3       0.23947    0.95886    0.28244   1.00
C2       0.24895    1.10512    0.24943   1.00
C2       0.25105    0.89488    0.25057   1.00
C3       0.25500    1.08462    0.21419   1.00
C3       0.26004    0.91519    0.21586   1.00
C3       0.24219    1.08258    0.28333   1.00
C3       0.24168    0.91762    0.28369   1.00
H1       0.25883    1.03115    0.18645   1.00
H1       0.26725    0.96852    0.18854   1.00
C5       0.23643    1.02020    0.31811   1.00
C5       0.22762    0.97980    0.31608   1.00
H1       0.25969    1.09955    0.18866   1.00
H1       0.26726    0.90010    0.19101   1.00
H1       0.23656    1.09680    0.30900   1.00
H1       0.23683    0.90368    0.30962   1.00
O3       0.23688    1.03961    0.35332   1.00
O3       0.21052    0.96099    0.34739   1.00
Si1      0.27736    1.04247    0.37830   1.00
Si1      0.16362    0.95279    0.34647   1.00
C6       0.26043    1.07538    0.41413   1.00
C6       0.28635    0.99598    0.39841   1.00
C6       0.31649    1.06253    0.35145   1.00
C6       0.13717    0.96693    0.30449   1.00
C6       0.16058    0.90198    0.35223   1.00
C6       0.14351    0.97477    0.38836   1.00
C6       0.23776    1.11194    0.39855   1.00
H2       0.23869    1.05791    0.42955   1.00
C6       0.28851    1.09147    0.44656   1.00
H2       0.25705    0.98358    0.39967   1.00
C6       0.31133    0.96634    0.37428   1.00
C6       0.30261    0.99336    0.44101   1.00
H2       0.30308    1.08831    0.33829   1.00
C6       0.35254    1.07772    0.37513   1.00
C6       0.33501    1.03849    0.31705   1.00
C6       0.13894    1.01071    0.29173   1.00
C6       0.14079    0.94225    0.26618   1.00
H2       0.10703    0.96212    0.31359   1.00
H2       0.17173    0.89051    0.32470   1.00
C6       0.18721    0.88378    0.38461   1.00
C6       0.11905    0.88393    0.35786   1.00
H2       0.14922    0.95375    0.41161   1.00
C6       0.16315    1.01336    0.40231   1.00
C6       0.09846    0.98244    0.38911   1.00
H2       0.21312    1.10346    0.38019   1.00
H2       0.25680    1.13090    0.38137   1.00
H2       0.22575    1.12917    0.42257   1.00
H2       0.27235    1.09608    0.47369   1.00
H2       0.31252    1.07178    0.45303   1.00
H2       0.30117    1.11964    0.43870   1.00
H2       0.30779    0.93672    0.38564   1.00
H2       0.30250    0.96532    0.34380   1.00
H2       0.34233    0.97352    0.37572   1.00
H2       0.28374    1.00862    0.46163   1.00
H2       0.30404    0.96308    0.45104   1.00
H2       0.33202    1.00550    0.44287   1.00
H2       0.36388    1.05514    0.39455   1.00
H2       0.37637    1.08708    0.35605   1.00
H2       0.34512    1.10332    0.39229   1.00
H2       0.35812    1.01902    0.32712   1.00
H2       0.31411    1.02068    0.30140   1.00
H2       0.34808    1.05828    0.29567   1.00
H2       0.16485    1.01688    0.27439   1.00
H2       0.11368    1.01809    0.27368   1.00
H2       0.13867    1.03048    0.31658   1.00
H2       0.11877    0.95125    0.24489   1.00
H2       0.16908    0.94574    0.25222   1.00
H2       0.13599    0.91122    0.27138   1.00
H2       0.18835    0.85202    0.38155   1.00
H2       0.21721    0.89435    0.38232   1.00
H2       0.17657    0.89035    0.41389   1.00
H2       0.09864    0.89416    0.33567   1.00
H2       0.12031    0.85212    0.35537   1.00
H2       0.10714    0.89085    0.38660   1.00
H2       0.16073    1.03656    0.38067   1.00
H2       0.15048    1.02381    0.42963   1.00
H2       0.19395    1.00834    0.40773   1.00
H2       0.08881    0.99044    0.41846   1.00
H2       0.09035    1.00622    0.36947   1.00
H2       0.08194    0.95657    0.38077   1.00
C4       -0.02084   0.74719    0.25117   1.00
C4       0.02088    0.74745    0.25049   1.00
C3       -0.04364   0.71310    0.24529   1.00
C3       0.04384    0.71447    0.24037   1.00
C3       -0.04123   0.78296    0.25747   1.00
C3       0.04114    0.78244    0.26053   1.00
C2       -0.10512   0.74943    0.25105   1.00
C2       0.10512    0.75057    0.24895   1.00
C3       -0.08462   0.71419    0.24500   1.00
C3       0.08481    0.71586    0.23996   1.00
C3       -0.08258   0.78333    0.25781   1.00
C3       0.08238    0.78369    0.25832   1.00
H1       -0.03115   0.68645    0.24117   1.00
H1       0.03148    0.68854    0.23275   1.00
C5       -0.02020   0.81811    0.26357   1.00
C5       0.02020    0.81608    0.27238   1.00
H1       -0.09955   0.68866    0.24031   1.00
H1       0.09990    0.69101    0.23274   1.00
H1       -0.09680   0.80900    0.26344   1.00
H1       0.09632    0.80962    0.26317   1.00
O3       -0.03961   0.85332    0.26312   1.00
O3       0.03901    0.84739    0.28948   1.00
Si1      -0.04247   0.87830    0.22264   1.00
Si1      0.04721    0.84647    0.33638   1.00
C6       -0.07538   0.91413    0.23957   1.00
C6       0.00402    0.89841    0.21365   1.00
C6       -0.06253   0.85145    0.18351   1.00
C6       0.03307    0.80449    0.36283   1.00
C6       0.09802    0.85223    0.33942   1.00
C6       0.02523    0.88836    0.35649   1.00
C6       -0.11194   0.89855    0.26224   1.00
H2       -0.05791   0.92955    0.26131   1.00
C6       -0.09147   0.94656    0.21149   1.00
H2       0.01642    0.89967    0.24295   1.00
C6       0.03366    0.87428    0.18867   1.00
C6       0.00664    0.94101    0.19739   1.00
H2       -0.08831   0.83829    0.19692   1.00
C6       -0.07772   0.87513    0.14746   1.00
C6       -0.03849   0.81705    0.16499   1.00
C6       -0.01071   0.79173    0.36106   1.00
C6       0.05775    0.76618    0.35921   1.00
H2       0.03788    0.81359    0.39297   1.00
H2       0.10949    0.82470    0.32827   1.00
C6       0.11622    0.88461    0.31279   1.00
C6       0.11607    0.85786    0.38095   1.00
H2       0.04625    0.91161    0.35078   1.00
C6       -0.01336   0.90231    0.33685   1.00
C6       0.01756    0.88911    0.40154   1.00
H2       -0.10346   0.88019    0.28688   1.00
H2       -0.13090   0.88137    0.24320   1.00
H2       -0.12917   0.92257    0.27425   1.00
H2       -0.09608   0.97369    0.22765   1.00
H2       -0.07178   0.95303    0.18748   1.00
H2       -0.11964   0.93870    0.19883   1.00
H2       0.06328    0.88564    0.19221   1.00
H2       0.03468    0.84380    0.19750   1.00
H2       0.02648    0.87572    0.15767   1.00
H2       -0.00862   0.96163    0.21626   1.00
H2       0.03692    0.95104    0.19596   1.00
H2       -0.00550   0.94287    0.16798   1.00
H2       -0.05514   0.89455    0.13612   1.00
H2       -0.08708   0.85605    0.12363   1.00
H2       -0.10332   0.89229    0.15488   1.00
H2       -0.01902   0.82712    0.14188   1.00
H2       -0.02068   0.80140    0.18589   1.00
H2       -0.05828   0.79567    0.15192   1.00
H2       -0.01688   0.77439    0.33515   1.00
H2       -0.01809   0.77368    0.38632   1.00
H2       -0.03048   0.81658    0.36133   1.00
H2       0.04875    0.74489    0.38123   1.00
H2       0.05426    0.75222    0.33092   1.00
H2       0.08878    0.77138    0.36401   1.00
H2       0.14798    0.88155    0.31165   1.00
H2       0.10565    0.88232    0.28279   1.00
H2       0.10965    0.91389    0.32343   1.00
H2       0.10584    0.83567    0.40136   1.00
H2       0.14788    0.85537    0.37969   1.00
H2       0.10915    0.88660    0.39286   1.00
H2       -0.03656   0.88067    0.33927   1.00
H2       -0.02381   0.92963    0.34952   1.00
H2       -0.00834   0.90773    0.30605   1.00
H2       0.00956    0.91846    0.41119   1.00
H2       -0.00622   0.86947    0.40965   1.00
H2       0.04343    0.88077    0.41806   1.00
C4       0.52084    0.74719    0.24883   1.00
C4       0.47912    0.74745    0.24951   1.00
C3       0.54364    0.71310    0.25471   1.00
C3       0.45616    0.71447    0.25963   1.00
C3       0.54123    0.78296    0.24253   1.00
C3       0.45886    0.78244    0.23947   1.00
C2       0.60512    0.74943    0.24895   1.00
C2       0.39488    0.75057    0.25105   1.00
C3       0.58462    0.71419    0.25500   1.00
C3       0.41519    0.71586    0.26004   1.00
C3       0.58258    0.78333    0.24219   1.00
C3       0.41762    0.78369    0.24168   1.00
H1       0.53115    0.68645    0.25883   1.00
H1       0.46852    0.68854    0.26725   1.00
C5       0.52020    0.81811    0.23643   1.00
C5       0.47980    0.81608    0.22762   1.00
H1       0.59955    0.68866    0.25969   1.00
H1       0.40010    0.69101    0.26726   1.00
H1       0.59680    0.80900    0.23656   1.00
H1       0.40368    0.80962    0.23683   1.00
O3       0.53961    0.85332    0.23688   1.00
O3       0.46099    0.84739    0.21052   1.00
Si1      0.54247    0.87830    0.27736   1.00
Si1      0.45279    0.84647    0.16362   1.00
C6       0.57538    0.91413    0.26043   1.00
C6       0.49598    0.89841    0.28635   1.00
C6       0.56253    0.85145    0.31649   1.00
C6       0.46693    0.80449    0.13717   1.00
C6       0.40198    0.85223    0.16058   1.00
C6       0.47477    0.88836    0.14351   1.00
C6       0.61194    0.89855    0.23776   1.00
H2       0.55791    0.92955    0.23869   1.00
C6       0.59147    0.94656    0.28851   1.00
H2       0.48358    0.89967    0.25705   1.00
C6       0.46634    0.87428    0.31133   1.00
C6       0.49336    0.94101    0.30261   1.00
H2       0.58831    0.83829    0.30308   1.00
C6       0.57772    0.87513    0.35254   1.00
C6       0.53849    0.81705    0.33501   1.00
C6       0.51071    0.79173    0.13894   1.00
C6       0.44225    0.76618    0.14079   1.00
H2       0.46212    0.81359    0.10703   1.00
H2       0.39051    0.82470    0.17173   1.00
C6       0.38378    0.88461    0.18721   1.00
C6       0.38393    0.85786    0.11905   1.00
H2       0.45375    0.91161    0.14922   1.00
C6       0.51336    0.90231    0.16315   1.00
C6       0.48244    0.88911    0.09846   1.00
H2       0.60346    0.88019    0.21312   1.00
H2       0.63090    0.88137    0.25680   1.00
H2       0.62917    0.92257    0.22575   1.00
H2       0.59608    0.97369    0.27235   1.00
H2       0.57178    0.95303    0.31252   1.00
H2       0.61964    0.93870    0.30117   1.00
H2       0.43672    0.88564    0.30779   1.00
H2       0.46532    0.84380    0.30250   1.00
H2       0.47352    0.87572    0.34233   1.00
H2       0.50862    0.96163    0.28374   1.00
H2       0.46308    0.95104    0.30404   1.00
H2       0.50550    0.94287    0.33202   1.00
H2       0.55514    0.89455    0.36388   1.00
H2       0.58708    0.85605    0.37637   1.00
H2       0.60332    0.89229    0.34512   1.00
H2       0.51902    0.82712    0.35812   1.00
H2       0.52068    0.80140    0.31411   1.00
H2       0.55828    0.79567    0.34808   1.00
H2       0.51688    0.77439    0.16485   1.00
H2       0.51809    0.77368    0.11368   1.00
H2       0.53048    0.81658    0.13867   1.00
H2       0.45125    0.74489    0.11877   1.00
H2       0.44574    0.75222    0.16908   1.00
H2       0.41122    0.77138    0.13599   1.00
H2       0.35202    0.88155    0.18835   1.00
H2       0.39435    0.88232    0.21721   1.00
H2       0.39035    0.91389    0.17657   1.00
H2       0.39416    0.83567    0.09864   1.00
H2       0.35212    0.85537    0.12031   1.00
H2       0.39085    0.88660    0.10714   1.00
H2       0.53656    0.88067    0.16073   1.00
H2       0.52381    0.92963    0.15048   1.00
H2       0.50834    0.90773    0.19395   1.00
H2       0.49044    0.91846    0.08881   1.00
H2       0.50622    0.86947    0.09035   1.00
H2       0.45657    0.88077    0.08194   1.00
C4       0.25117    0.47916    0.24719   1.00
C4       0.25049    0.52088    0.24745   1.00
C3       0.24529    0.45636    0.21310   1.00
C3       0.24037    0.54384    0.21447   1.00
C3       0.25747    0.45877    0.28296   1.00
C3       0.26053    0.54114    0.28244   1.00
C2       0.25105    0.39488    0.24943   1.00
C2       0.24895    0.60512    0.25057   1.00
C3       0.24500    0.41538    0.21419   1.00
C3       0.23996    0.58481    0.21586   1.00
C3       0.25781    0.41742    0.28333   1.00
C3       0.25832    0.58238    0.28369   1.00
H1       0.24117    0.46885    0.18645   1.00
H1       0.23275    0.53148    0.18854   1.00
C5       0.26357    0.47980    0.31811   1.00
C5       0.27238    0.52020    0.31608   1.00
H1       0.24031    0.40045    0.18866   1.00
H1       0.23274    0.59990    0.19101   1.00
H1       0.26344    0.40320    0.30900   1.00
H1       0.26317    0.59632    0.30962   1.00
O3       0.26312    0.46039    0.35332   1.00
O3       0.28948    0.53901    0.34739   1.00
Si1      0.22264    0.45753    0.37830   1.00
Si1      0.33638    0.54721    0.34647   1.00
C6       0.23957    0.42462    0.41413   1.00
C6       0.21365    0.50402    0.39841   1.00
C6       0.18351    0.43747    0.35145   1.00
C6       0.36283    0.53307    0.30449   1.00
C6       0.33942    0.59802    0.35223   1.00
C6       0.35649    0.52523    0.38836   1.00
C6       0.26224    0.38806    0.39855   1.00
H2       0.26131    0.44209    0.42955   1.00
C6       0.21149    0.40853    0.44656   1.00
H2       0.24295    0.51642    0.39967   1.00
C6       0.18867    0.53366    0.37428   1.00
C6       0.19739    0.50664    0.44101   1.00
H2       0.19692    0.41169    0.33829   1.00
C6       0.14746    0.42228    0.37513   1.00
C6       0.16499    0.46151    0.31705   1.00
C6       0.36106    0.48929    0.29173   1.00
C6       0.35921    0.55775    0.26618   1.00
H2       0.39297    0.53788    0.31359   1.00
H2       0.32827    0.60949    0.32470   1.00
C6       0.31279    0.61622    0.38461   1.00
C6       0.38095    0.61607    0.35786   1.00
H2       0.35078    0.54625    0.41161   1.00
C6       0.33685    0.48664    0.40231   1.00
C6       0.40154    0.51756    0.38911   1.00
H2       0.28688    0.39654    0.38019   1.00
H2       0.24320    0.36910    0.38137   1.00
H2       0.27425    0.37083    0.42257   1.00
H2       0.22765    0.40392    0.47369   1.00
H2       0.18748    0.42822    0.45303   1.00
H2       0.19883    0.38036    0.43870   1.00
H2       0.19221    0.56328    0.38564   1.00
H2       0.19750    0.53468    0.34380   1.00
H2       0.15767    0.52648    0.37572   1.00
H2       0.21626    0.49138    0.46163   1.00
H2       0.19596    0.53692    0.45104   1.00
H2       0.16798    0.49450    0.44287   1.00
H2       0.13612    0.44486    0.39455   1.00
H2       0.12363    0.41292    0.35605   1.00
H2       0.15488    0.39668    0.39229   1.00
H2       0.14188    0.48098    0.32712   1.00
H2       0.18589    0.47932    0.30140   1.00
H2       0.15192    0.44172    0.29567   1.00
H2       0.33515    0.48312    0.27439   1.00
H2       0.38632    0.48191    0.27368   1.00
H2       0.36133    0.46952    0.31658   1.00
H2       0.38123    0.54875    0.24489   1.00
H2       0.33092    0.55426    0.25222   1.00
H2       0.36401    0.58878    0.27138   1.00
H2       0.31165    0.64798    0.38155   1.00
H2       0.28279    0.60565    0.38232   1.00
H2       0.32343    0.60965    0.41389   1.00
H2       0.40136    0.60584    0.33567   1.00
H2       0.37969    0.64788    0.35537   1.00
H2       0.39286    0.60915    0.38660   1.00
H2       0.33927    0.46344    0.38067   1.00
H2       0.34952    0.47619    0.42963   1.00
H2       0.30605    0.49166    0.40773   1.00
H2       0.41119    0.50956    0.41846   1.00
H2       0.40965    0.49378    0.36947   1.00
H2       0.41806    0.54343    0.38077   1.00
C4       0.24719    0.75117    -0.02084   1.00
C4       0.24745    0.75049    0.02088   1.00
C3       0.21310    0.74529    -0.04364   1.00
C3       0.21447    0.74037    0.04384   1.00
C3       0.28296    0.75747    -0.04123   1.00
C3       0.28244    0.76053    0.04114   1.00
C2       0.24943    0.75105    -0.10512   1.00
C2       0.25057    0.74895    0.10512   1.00
C3       0.21419    0.74500    -0.08462   1.00
C3       0.21586    0.73996    0.08481   1.00
C3       0.28333    0.75781    -0.08258   1.00
C3       0.28369    0.75832    0.08238   1.00
H1       0.18645    0.74117    -0.03115   1.00
H1       0.18854    0.73275    0.03148   1.00
C5       0.31811    0.76357    -0.02020   1.00
C5       0.31608    0.77238    0.02020   1.00
H1       0.18866    0.74031    -0.09955   1.00
H1       0.19101    0.73274    0.09990   1.00
H1       0.30900    0.76344    -0.09680   1.00
H1       0.30962    0.76317    0.09632   1.00
O3       0.35332    0.76312    -0.03961   1.00
O3       0.34739    0.78948    0.03901   1.00
Si1      0.37830    0.72264    -0.04247   1.00
Si1      0.34647    0.83638    0.04721   1.00
C6       0.41413    0.73957    -0.07538   1.00
C6       0.39841    0.71365    0.00402   1.00
C6       0.35145    0.68351    -0.06253   1.00
C6       0.30449    0.86283    0.03307   1.00
C6       0.35223    0.83942    0.09802   1.00
C6       0.38836    0.85649    0.02523   1.00
C6       0.39855    0.76224    -0.11194   1.00
H2       0.42955    0.76131    -0.05791   1.00
C6       0.44656    0.71149    -0.09147   1.00
H2       0.39967    0.74295    0.01642   1.00
C6       0.37428    0.68867    0.03366   1.00
C6       0.44101    0.69739    0.00664   1.00
H2       0.33829    0.69692    -0.08831   1.00
C6       0.37513    0.64746    -0.07772   1.00
C6       0.31705    0.66499    -0.03849   1.00
C6       0.29173    0.86106    -0.01071   1.00
C6       0.26618    0.85921    0.05775   1.00
H2       0.31359    0.89297    0.03788   1.00
H2       0.32470    0.82827    0.10949   1.00
C6       0.38461    0.81279    0.11622   1.00
C6       0.35786    0.88095    0.11607   1.00
H2       0.41161    0.85078    0.04625   1.00
C6       0.40231    0.83685    -0.01336   1.00
C6       0.38911    0.90154    0.01756   1.00
H2       0.38019    0.78688    -0.10346   1.00
H2       0.38137    0.74320    -0.13090   1.00
H2       0.42257    0.77425    -0.12917   1.00
H2       0.47369    0.72765    -0.09608   1.00
H2       0.45303    0.68748    -0.07178   1.00
H2       0.43870    0.69883    -0.11964   1.00
H2       0.38564    0.69221    0.06328   1.00
H2       0.34380    0.69750    0.03468   1.00
H2       0.37572    0.65767    0.02648   1.00
H2       0.46163    0.71626    -0.00862   1.00
H2       0.45104    0.69596    0.03692   1.00
H2       0.44287    0.66798    -0.00550   1.00
H2       0.39455    0.63612    -0.05514   1.00
H2       0.35605    0.62363    -0.08708   1.00
H2       0.39229    0.65488    -0.10332   1.00
H2       0.32712    0.64188    -0.01902   1.00
H2       0.30140    0.68589    -0.02068   1.00
H2       0.29567    0.65192    -0.05828   1.00
H2       0.27439    0.83515    -0.01688   1.00
H2       0.27368    0.88632    -0.01809   1.00
H2       0.31658    0.86133    -0.03048   1.00
H2       0.24489    0.88123    0.04875   1.00
H2       0.25222    0.83092    0.05426   1.00
H2       0.27138    0.86401    0.08878   1.00
H2       0.38155    0.81165    0.14798   1.00
H2       0.38232    0.78279    0.10565   1.00
H2       0.41389    0.82343    0.10965   1.00
H2       0.33567    0.90136    0.10584   1.00
H2       0.35537    0.87969    0.14788   1.00
H2       0.38660    0.89286    0.10915   1.00
H2       0.38067    0.83927    -0.03656   1.00
H2       0.42963    0.84952    -0.02381   1.00
H2       0.40773    0.80605    -0.00834   1.00
H2       0.41846    0.91119    0.00956   1.00
H2       0.36947    0.90965    -0.00622   1.00
H2       0.38077    0.91806    0.04343   1.00
C4       0.74719    0.24883    0.52084   1.00
C4       0.74745    0.24951    0.47912   1.00
C3       0.71310    0.25471    0.54364   1.00
C3       0.71447    0.25963    0.45616   1.00
C3       0.78296    0.24253    0.54123   1.00
C3       0.78244    0.23947    0.45886   1.00
C2       0.74943    0.24895    0.60512   1.00
C2       0.75057    0.25105    0.39488   1.00
C3       0.71419    0.25500    0.58462   1.00
C3       0.71586    0.26004    0.41519   1.00
C3       0.78333    0.24219    0.58258   1.00
C3       0.78369    0.24168    0.41762   1.00
H1       0.68645    0.25883    0.53115   1.00
H1       0.68854    0.26725    0.46852   1.00
C5       0.81811    0.23643    0.52020   1.00
C5       0.81608    0.22762    0.47980   1.00
H1       0.68866    0.25969    0.59955   1.00
H1       0.69101    0.26726    0.40010   1.00
H1       0.80900    0.23656    0.59680   1.00
H1       0.80962    0.23683    0.40368   1.00
O3       0.85332    0.23688    0.53961   1.00
O3       0.84739    0.21052    0.46099   1.00
Si1      0.87830    0.27736    0.54247   1.00
Si1      0.84647    0.16362    0.45279   1.00
C6       0.91413    0.26043    0.57538   1.00
C6       0.89841    0.28635    0.49598   1.00
C6       0.85145    0.31649    0.56253   1.00
C6       0.80449    0.13717    0.46693   1.00
C6       0.85223    0.16058    0.40198   1.00
C6       0.88836    0.14351    0.47477   1.00
C6       0.89855    0.23776    0.61194   1.00
H2       0.92955    0.23869    0.55791   1.00
C6       0.94656    0.28851    0.59147   1.00
H2       0.89967    0.25705    0.48358   1.00
C6       0.87428    0.31133    0.46634   1.00
C6       0.94101    0.30261    0.49336   1.00
H2       0.83829    0.30308    0.58831   1.00
C6       0.87513    0.35254    0.57772   1.00
C6       0.81705    0.33501    0.53849   1.00
C6       0.79173    0.13894    0.51071   1.00
C6       0.76618    0.14079    0.44225   1.00
H2       0.81359    0.10703    0.46212   1.00
H2       0.82470    0.17173    0.39051   1.00
C6       0.88461    0.18721    0.38378   1.00
C6       0.85786    0.11905    0.38393   1.00
H2       0.91161    0.14922    0.45375   1.00
C6       0.90231    0.16315    0.51336   1.00
C6       0.88911    0.09846    0.48244   1.00
H2       0.88019    0.21312    0.60346   1.00
H2       0.88137    0.25680    0.63090   1.00
H2       0.92257    0.22575    0.62917   1.00
H2       0.97369    0.27235    0.59608   1.00
H2       0.95303    0.31252    0.57178   1.00
H2       0.93870    0.30117    0.61964   1.00
H2       0.88564    0.30779    0.43672   1.00
H2       0.84380    0.30250    0.46532   1.00
H2       0.87572    0.34233    0.47352   1.00
H2       0.96163    0.28374    0.50862   1.00
H2       0.95104    0.30404    0.46308   1.00
H2       0.94287    0.33202    0.50550   1.00
H2       0.89455    0.36388    0.55514   1.00
H2       0.85605    0.37637    0.58708   1.00
H2       0.89229    0.34512    0.60332   1.00
H2       0.82712    0.35812    0.51902   1.00
H2       0.80140    0.31411    0.52068   1.00
H2       0.79567    0.34808    0.55828   1.00
H2       0.77439    0.16485    0.51688   1.00
H2       0.77368    0.11368    0.51809   1.00
H2       0.81658    0.13867    0.53048   1.00
H2       0.74489    0.11877    0.45125   1.00
H2       0.75222    0.16908    0.44574   1.00
H2       0.77138    0.13599    0.41122   1.00
H2       0.88155    0.18835    0.35202   1.00
H2       0.88232    0.21721    0.39435   1.00
H2       0.91389    0.17657    0.39035   1.00
H2       0.83567    0.09864    0.39416   1.00
H2       0.85537    0.12031    0.35212   1.00
H2       0.88660    0.10714    0.39085   1.00
H2       0.88067    0.16073    0.53656   1.00
H2       0.92963    0.15048    0.52381   1.00
H2       0.90773    0.19395    0.50834   1.00
H2       0.91846    0.08881    0.49044   1.00
H2       0.86947    0.09035    0.50622   1.00
H2       0.88077    0.08194    0.45657   1.00
C4       0.74883    0.52084    0.24719   1.00
C4       0.74951    0.47912    0.24745   1.00
C3       0.75471    0.54364    0.21310   1.00
C3       0.75963    0.45616    0.21447   1.00
C3       0.74253    0.54123    0.28296   1.00
C3       0.73947    0.45886    0.28244   1.00
C2       0.74895    0.60512    0.24943   1.00
C2       0.75105    0.39488    0.25057   1.00
C3       0.75500    0.58462    0.21419   1.00
C3       0.76004    0.41519    0.21586   1.00
C3       0.74219    0.58258    0.28333   1.00
C3       0.74168    0.41762    0.28369   1.00
H1       0.75883    0.53115    0.18645   1.00
H1       0.76725    0.46852    0.18854   1.00
C5       0.73643    0.52020    0.31811   1.00
C5       0.72762    0.47980    0.31608   1.00
H1       0.75969    0.59955    0.18866   1.00
H1       0.76726    0.40010    0.19101   1.00
H1       0.73656    0.59680    0.30900   1.00
H1       0.73683    0.40368    0.30962   1.00
O3       0.73688    0.53961    0.35332   1.00
O3       0.71052    0.46099    0.34739   1.00
Si1      0.77736    0.54247    0.37830   1.00
Si1      0.66362    0.45279    0.34647   1.00
C6       0.76043    0.57538    0.41413   1.00
C6       0.78635    0.49598    0.39841   1.00
C6       0.81649    0.56253    0.35145   1.00
C6       0.63717    0.46693    0.30449   1.00
C6       0.66058    0.40198    0.35223   1.00
C6       0.64351    0.47477    0.38836   1.00
C6       0.73776    0.61194    0.39855   1.00
H2       0.73869    0.55791    0.42955   1.00
C6       0.78851    0.59147    0.44656   1.00
H2       0.75705    0.48358    0.39967   1.00
C6       0.81133    0.46634    0.37428   1.00
C6       0.80261    0.49336    0.44101   1.00
H2       0.80308    0.58831    0.33829   1.00
C6       0.85254    0.57772    0.37513   1.00
C6       0.83501    0.53849    0.31705   1.00
C6       0.63894    0.51071    0.29173   1.00
C6       0.64079    0.44225    0.26618   1.00
H2       0.60703    0.46212    0.31359   1.00
H2       0.67173    0.39051    0.32470   1.00
C6       0.68721    0.38378    0.38461   1.00
C6       0.61905    0.38393    0.35786   1.00
H2       0.64922    0.45375    0.41161   1.00
C6       0.66315    0.51336    0.40231   1.00
C6       0.59846    0.48244    0.38911   1.00
H2       0.71312    0.60346    0.38019   1.00
H2       0.75680    0.63090    0.38137   1.00
H2       0.72575    0.62917    0.42257   1.00
H2       0.77235    0.59608    0.47369   1.00
H2       0.81252    0.57178    0.45303   1.00
H2       0.80117    0.61964    0.43870   1.00
H2       0.80779    0.43672    0.38564   1.00
H2       0.80250    0.46532    0.34380   1.00
H2       0.84233    0.47352    0.37572   1.00
H2       0.78374    0.50862    0.46163   1.00
H2       0.80404    0.46308    0.45104   1.00
H2       0.83202    0.50550    0.44287   1.00
H2       0.86388    0.55514    0.39455   1.00
H2       0.87637    0.58708    0.35605   1.00
H2       0.84512    0.60332    0.39229   1.00
H2       0.85812    0.51902    0.32712   1.00
H2       0.81411    0.52068    0.30140   1.00
H2       0.84808    0.55828    0.29567   1.00
H2       0.66485    0.51688    0.27439   1.00
H2       0.61368    0.51809    0.27368   1.00
H2       0.63867    0.53048    0.31658   1.00
H2       0.61877    0.45125    0.24489   1.00
H2       0.66908    0.44574    0.25222   1.00
H2       0.63599    0.41122    0.27138   1.00
H2       0.68835    0.35202    0.38155   1.00
H2       0.71721    0.39435    0.38232   1.00
H2       0.67657    0.39035    0.41389   1.00
H2       0.59864    0.39416    0.33567   1.00
H2       0.62031    0.35212    0.35537   1.00
H2       0.60714    0.39085    0.38660   1.00
H2       0.66073    0.53656    0.38067   1.00
H2       0.65048    0.52381    0.42963   1.00
H2       0.69395    0.50834    0.40773   1.00
H2       0.58881    0.49044    0.41846   1.00
H2       0.59035    0.50622    0.36947   1.00
H2       0.58194    0.45657    0.38077   1.00
C4       0.47916    0.24719    0.25117   1.00
C4       0.52088    0.24745    0.25049   1.00
C3       0.45636    0.21310    0.24529   1.00
C3       0.54384    0.21447    0.24037   1.00
C3       0.45877    0.28296    0.25747   1.00
C3       0.54114    0.28244    0.26053   1.00
C2       0.39488    0.24943    0.25105   1.00
C2       0.60512    0.25057    0.24895   1.00
C3       0.41538    0.21419    0.24500   1.00
C3       0.58481    0.21586    0.23996   1.00
C3       0.41742    0.28333    0.25781   1.00
C3       0.58238    0.28369    0.25832   1.00
H1       0.46885    0.18645    0.24117   1.00
H1       0.53148    0.18854    0.23275   1.00
C5       0.47980    0.31811    0.26357   1.00
C5       0.52020    0.31608    0.27238   1.00
H1       0.40045    0.18866    0.24031   1.00
H1       0.59990    0.19101    0.23274   1.00
H1       0.40320    0.30900    0.26344   1.00
H1       0.59632    0.30962    0.26317   1.00
O3       0.46039    0.35332    0.26312   1.00
O3       0.53901    0.34739    0.28948   1.00
Si1      0.45753    0.37830    0.22264   1.00
Si1      0.54721    0.34647    0.33638   1.00
C6       0.42462    0.41413    0.23957   1.00
C6       0.50402    0.39841    0.21365   1.00
C6       0.43747    0.35145    0.18351   1.00
C6       0.53307    0.30449    0.36283   1.00
C6       0.59802    0.35223    0.33942   1.00
C6       0.52523    0.38836    0.35649   1.00
C6       0.38806    0.39855    0.26224   1.00
H2       0.44209    0.42955    0.26131   1.00
C6       0.40853    0.44656    0.21149   1.00
H2       0.51642    0.39967    0.24295   1.00
C6       0.53366    0.37428    0.18867   1.00
C6       0.50664    0.44101    0.19739   1.00
H2       0.41169    0.33829    0.19692   1.00
C6       0.42228    0.37513    0.14746   1.00
C6       0.46151    0.31705    0.16499   1.00
C6       0.48929    0.29173    0.36106   1.00
C6       0.55775    0.26618    0.35921   1.00
H2       0.53788    0.31359    0.39297   1.00
H2       0.60949    0.32470    0.32827   1.00
C6       0.61622    0.38461    0.31279   1.00
C6       0.61607    0.35786    0.38095   1.00
H2       0.54625    0.41161    0.35078   1.00
C6       0.48664    0.40231    0.33685   1.00
C6       0.51756    0.38911    0.40154   1.00
H2       0.39654    0.38019    0.28688   1.00
H2       0.36910    0.38137    0.24320   1.00
H2       0.37083    0.42257    0.27425   1.00
H2       0.40392    0.47369    0.22765   1.00
H2       0.42822    0.45303    0.18748   1.00
H2       0.38036    0.43870    0.19883   1.00
H2       0.56328    0.38564    0.19221   1.00
H2       0.53468    0.34380    0.19750   1.00
H2       0.52648    0.37572    0.15767   1.00
H2       0.49138    0.46163    0.21626   1.00
H2       0.53692    0.45104    0.19596   1.00
H2       0.49450    0.44287    0.16798   1.00
H2       0.44486    0.39455    0.13612   1.00
H2       0.41292    0.35605    0.12363   1.00
H2       0.39668    0.39229    0.15488   1.00
H2       0.48098    0.32712    0.14188   1.00
H2       0.47932    0.30140    0.18589   1.00
H2       0.44172    0.29567    0.15192   1.00
H2       0.48312    0.27439    0.33515   1.00
H2       0.48191    0.27368    0.38632   1.00
H2       0.46952    0.31658    0.36133   1.00
H2       0.54875    0.24489    0.38123   1.00
H2       0.55426    0.25222    0.33092   1.00
H2       0.58878    0.27138    0.36401   1.00
H2       0.64798    0.38155    0.31165   1.00
H2       0.60565    0.38232    0.28279   1.00
H2       0.60965    0.41389    0.32343   1.00
H2       0.60584    0.33567    0.40136   1.00
H2       0.64788    0.35537    0.37969   1.00
H2       0.60915    0.38660    0.39286   1.00
H2       0.46344    0.38067    0.33927   1.00
H2       0.47619    0.42963    0.34952   1.00
H2       0.49166    0.40773    0.30605   1.00
H2       0.50956    0.41846    0.41119   1.00
H2       0.49378    0.36947    0.40965   1.00
H2       0.54343    0.38077    0.41806   1.00
C4       1.02084    0.24719    0.24883   1.00
C4       0.97912    0.24745    0.24951   1.00
C3       1.04364    0.21310    0.25471   1.00
C3       0.95616    0.21447    0.25963   1.00
C3       1.04123    0.28296    0.24253   1.00
C3       0.95886    0.28244    0.23947   1.00
C2       1.10512    0.24943    0.24895   1.00
C2       0.89488    0.25057    0.25105   1.00
C3       1.08462    0.21419    0.25500   1.00
C3       0.91519    0.21586    0.26004   1.00
C3       1.08258    0.28333    0.24219   1.00
C3       0.91762    0.28369    0.24168   1.00
H1       1.03115    0.18645    0.25883   1.00
H1       0.96852    0.18854    0.26725   1.00
C5       1.02020    0.31811    0.23643   1.00
C5       0.97980    0.31608    0.22762   1.00
H1       1.09955    0.18866    0.25969   1.00
H1       0.90010    0.19101    0.26726   1.00
H1       1.09680    0.30900    0.23656   1.00
H1       0.90368    0.30962    0.23683   1.00
O3       1.03961    0.35332    0.23688   1.00
O3       0.96099    0.34739    0.21052   1.00
Si1      1.04247    0.37830    0.27736   1.00
Si1      0.95279    0.34647    0.16362   1.00
C6       1.07538    0.41413    0.26043   1.00
C6       0.99598    0.39841    0.28635   1.00
C6       1.06253    0.35145    0.31649   1.00
C6       0.96693    0.30449    0.13717   1.00
C6       0.90198    0.35223    0.16058   1.00
C6       0.97477    0.38836    0.14351   1.00
C6       1.11194    0.39855    0.23776   1.00
H2       1.05791    0.42955    0.23869   1.00
C6       1.09147    0.44656    0.28851   1.00
H2       0.98358    0.39967    0.25705   1.00
C6       0.96634    0.37428    0.31133   1.00
C6       0.99336    0.44101    0.30261   1.00
H2       1.08831    0.33829    0.30308   1.00
C6       1.07772    0.37513    0.35254   1.00
C6       1.03849    0.31705    0.33501   1.00
C6       1.01071    0.29173    0.13894   1.00
C6       0.94225    0.26618    0.14079   1.00
H2       0.96212    0.31359    0.10703   1.00
H2       0.89051    0.32470    0.17173   1.00
C6       0.88378    0.38461    0.18721   1.00
C6       0.88393    0.35786    0.11905   1.00
H2       0.95375    0.41161    0.14922   1.00
C6       1.01336    0.40231    0.16315   1.00
C6       0.98244    0.38911    0.09846   1.00
H2       1.10346    0.38019    0.21312   1.00
H2       1.13090    0.38137    0.25680   1.00
H2       1.12917    0.42257    0.22575   1.00
H2       1.09608    0.47369    0.27235   1.00
H2       1.07178    0.45303    0.31252   1.00
H2       1.11964    0.43870    0.30117   1.00
H2       0.93672    0.38564    0.30779   1.00
H2       0.96532    0.34380    0.30250   1.00
H2       0.97352    0.37572    0.34233   1.00
H2       1.00862    0.46163    0.28374   1.00
H2       0.96308    0.45104    0.30404   1.00
H2       1.00550    0.44287    0.33202   1.00
H2       1.05514    0.39455    0.36388   1.00
H2       1.08708    0.35605    0.37637   1.00
H2       1.10332    0.39229    0.34512   1.00
H2       1.01902    0.32712    0.35812   1.00
H2       1.02068    0.30140    0.31411   1.00
H2       1.05828    0.29567    0.34808   1.00
H2       1.01688    0.27439    0.16485   1.00
H2       1.01809    0.27368    0.11368   1.00
H2       1.03048    0.31658    0.13867   1.00
H2       0.95125    0.24489    0.11877   1.00
H2       0.94574    0.25222    0.16908   1.00
H2       0.91122    0.27138    0.13599   1.00
H2       0.85202    0.38155    0.18835   1.00
H2       0.89435    0.38232    0.21721   1.00
H2       0.89035    0.41389    0.17657   1.00
H2       0.89416    0.33567    0.09864   1.00
H2       0.85212    0.35537    0.12031   1.00
H2       0.89085    0.38660    0.10714   1.00
H2       1.03656    0.38067    0.16073   1.00
H2       1.02381    0.42963    0.15048   1.00
H2       1.00834    0.40773    0.19395   1.00
H2       0.99044    0.41846    0.08881   1.00
H2       1.00622    0.36947    0.09035   1.00
H2       0.95657    0.38077    0.08194   1.00
C4       0.75117    -0.02084   0.24719   1.00
C4       0.75049    0.02088    0.24745   1.00
C3       0.74529    -0.04364   0.21310   1.00
C3       0.74037    0.04384    0.21447   1.00
C3       0.75747    -0.04123   0.28296   1.00
C3       0.76053    0.04114    0.28244   1.00
C2       0.75105    -0.10512   0.24943   1.00
C2       0.74895    0.10512    0.25057   1.00
C3       0.74500    -0.08462   0.21419   1.00
C3       0.73996    0.08481    0.21586   1.00
C3       0.75781    -0.08258   0.28333   1.00
C3       0.75832    0.08238    0.28369   1.00
H1       0.74117    -0.03115   0.18645   1.00
H1       0.73275    0.03148    0.18854   1.00
C5       0.76357    -0.02020   0.31811   1.00
C5       0.77238    0.02020    0.31608   1.00
H1       0.74031    -0.09955   0.18866   1.00
H1       0.73274    0.09990    0.19101   1.00
H1       0.76344    -0.09680   0.30900   1.00
H1       0.76317    0.09632    0.30962   1.00
O3       0.76312    -0.03961   0.35332   1.00
O3       0.78948    0.03901    0.34739   1.00
Si1      0.72264    -0.04247   0.37830   1.00
Si1      0.83638    0.04721    0.34647   1.00
C6       0.73957    -0.07538   0.41413   1.00
C6       0.71365    0.00402    0.39841   1.00
C6       0.68351    -0.06253   0.35145   1.00
C6       0.86283    0.03307    0.30449   1.00
C6       0.83942    0.09802    0.35223   1.00
C6       0.85649    0.02523    0.38836   1.00
C6       0.76224    -0.11194   0.39855   1.00
H2       0.76131    -0.05791   0.42955   1.00
C6       0.71149    -0.09147   0.44656   1.00
H2       0.74295    0.01642    0.39967   1.00
C6       0.68867    0.03366    0.37428   1.00
C6       0.69739    0.00664    0.44101   1.00
H2       0.69692    -0.08831   0.33829   1.00
C6       0.64746    -0.07772   0.37513   1.00
C6       0.66499    -0.03849   0.31705   1.00
C6       0.86106    -0.01071   0.29173   1.00
C6       0.85921    0.05775    0.26618   1.00
H2       0.89297    0.03788    0.31359   1.00
H2       0.82827    0.10949    0.32470   1.00
C6       0.81279    0.11622    0.38461   1.00
C6       0.88095    0.11607    0.35786   1.00
H2       0.85078    0.04625    0.41161   1.00
C6       0.83685    -0.01336   0.40231   1.00
C6       0.90154    0.01756    0.38911   1.00
H2       0.78688    -0.10346   0.38019   1.00
H2       0.74320    -0.13090   0.38137   1.00
H2       0.77425    -0.12917   0.42257   1.00
H2       0.72765    -0.09608   0.47369   1.00
H2       0.68748    -0.07178   0.45303   1.00
H2       0.69883    -0.11964   0.43870   1.00
H2       0.69221    0.06328    0.38564   1.00
H2       0.69750    0.03468    0.34380   1.00
H2       0.65767    0.02648    0.37572   1.00
H2       0.71626    -0.00862   0.46163   1.00
H2       0.69596    0.03692    0.45104   1.00
H2       0.66798    -0.00550   0.44287   1.00
H2       0.63612    -0.05514   0.39455   1.00
H2       0.62363    -0.08708   0.35605   1.00
H2       0.65488    -0.10332   0.39229   1.00
H2       0.64188    -0.01902   0.32712   1.00
H2       0.68589    -0.02068   0.30140   1.00
H2       0.65192    -0.05828   0.29567   1.00
H2       0.83515    -0.01688   0.27439   1.00
H2       0.88632    -0.01809   0.27368   1.00
H2       0.86133    -0.03048   0.31658   1.00
H2       0.88123    0.04875    0.24489   1.00
H2       0.83092    0.05426    0.25222   1.00
H2       0.86401    0.08878    0.27138   1.00
H2       0.81165    0.14798    0.38155   1.00
H2       0.78279    0.10565    0.38232   1.00
H2       0.82343    0.10965    0.41389   1.00
H2       0.90136    0.10584    0.33567   1.00
H2       0.87969    0.14788    0.35537   1.00
H2       0.89286    0.10915    0.38660   1.00
H2       0.83927    -0.03656   0.38067   1.00
H2       0.84952    -0.02381   0.42963   1.00
H2       0.80605    -0.00834   0.40773   1.00
H2       0.91119    0.00956    0.41846   1.00
H2       0.90965    -0.00622   0.36947   1.00
H2       0.91806    0.04343    0.38077   1.00
C4       0.74719    0.25117    -0.02084   1.00
C4       0.74745    0.25049    0.02088   1.00
C3       0.71310    0.24529    -0.04364   1.00
C3       0.71447    0.24037    0.04384   1.00
C3       0.78296    0.25747    -0.04123   1.00
C3       0.78244    0.26053    0.04114   1.00
C2       0.74943    0.25105    -0.10512   1.00
C2       0.75057    0.24895    0.10512   1.00
C3       0.71419    0.24500    -0.08462   1.00
C3       0.71586    0.23996    0.08481   1.00
C3       0.78333    0.25781    -0.08258   1.00
C3       0.78369    0.25832    0.08238   1.00
H1       0.68645    0.24117    -0.03115   1.00
H1       0.68854    0.23275    0.03148   1.00
C5       0.81811    0.26357    -0.02020   1.00
C5       0.81608    0.27238    0.02020   1.00
H1       0.68866    0.24031    -0.09955   1.00
H1       0.69101    0.23274    0.09990   1.00
H1       0.80900    0.26344    -0.09680   1.00
H1       0.80962    0.26317    0.09632   1.00
O3       0.85332    0.26312    -0.03961   1.00
O3       0.84739    0.28948    0.03901   1.00
Si1      0.87830    0.22264    -0.04247   1.00
Si1      0.84647    0.33638    0.04721   1.00
C6       0.91413    0.23957    -0.07538   1.00
C6       0.89841    0.21365    0.00402   1.00
C6       0.85145    0.18351    -0.06253   1.00
C6       0.80449    0.36283    0.03307   1.00
C6       0.85223    0.33942    0.09802   1.00
C6       0.88836    0.35649    0.02523   1.00
C6       0.89855    0.26224    -0.11194   1.00
H2       0.92955    0.26131    -0.05791   1.00
C6       0.94656    0.21149    -0.09147   1.00
H2       0.89967    0.24295    0.01642   1.00
C6       0.87428    0.18867    0.03366   1.00
C6       0.94101    0.19739    0.00664   1.00
H2       0.83829    0.19692    -0.08831   1.00
C6       0.87513    0.14746    -0.07772   1.00
C6       0.81705    0.16499    -0.03849   1.00
C6       0.79173    0.36106    -0.01071   1.00
C6       0.76618    0.35921    0.05775   1.00
H2       0.81359    0.39297    0.03788   1.00
H2       0.82470    0.32827    0.10949   1.00
C6       0.88461    0.31279    0.11622   1.00
C6       0.85786    0.38095    0.11607   1.00
H2       0.91161    0.35078    0.04625   1.00
C6       0.90231    0.33685    -0.01336   1.00
C6       0.88911    0.40154    0.01756   1.00
H2       0.88019    0.28688    -0.10346   1.00
H2       0.88137    0.24320    -0.13090   1.00
H2       0.92257    0.27425    -0.12917   1.00
H2       0.97369    0.22765    -0.09608   1.00
H2       0.95303    0.18748    -0.07178   1.00
H2       0.93870    0.19883    -0.11964   1.00
H2       0.88564    0.19221    0.06328   1.00
H2       0.84380    0.19750    0.03468   1.00
H2       0.87572    0.15767    0.02648   1.00
H2       0.96163    0.21626    -0.00862   1.00
H2       0.95104    0.19596    0.03692   1.00
H2       0.94287    0.16798    -0.00550   1.00
H2       0.89455    0.13612    -0.05514   1.00
H2       0.85605    0.12363    -0.08708   1.00
H2       0.89229    0.15488    -0.10332   1.00
H2       0.82712    0.14188    -0.01902   1.00
H2       0.80140    0.18589    -0.02068   1.00
H2       0.79567    0.15192    -0.05828   1.00
H2       0.77439    0.33515    -0.01688   1.00
H2       0.77368    0.38632    -0.01809   1.00
H2       0.81658    0.36133    -0.03048   1.00
H2       0.74489    0.38123    0.04875   1.00
H2       0.75222    0.33092    0.05426   1.00
H2       0.77138    0.36401    0.08878   1.00
H2       0.88155    0.31165    0.14798   1.00
H2       0.88232    0.28279    0.10565   1.00
H2       0.91389    0.32343    0.10965   1.00
H2       0.83567    0.40136    0.10584   1.00
H2       0.85537    0.37969    0.14788   1.00
H2       0.88660    0.39286    0.10915   1.00
H2       0.88067    0.33927    -0.03656   1.00
H2       0.92963    0.34952    -0.02381   1.00
H2       0.90773    0.30605    -0.00834   1.00
H2       0.91846    0.41119    0.00956   1.00
H2       0.86947    0.40965    -0.00622   1.00
H2       0.88077    0.41806    0.04343   1.00
C4       0.99719    0.99883    1.27084   1.00
C4       0.99745    0.99951    1.22912   1.00
C3       0.96310    1.00471    1.29364   1.00
C3       0.96447    1.00963    1.20616   1.00
C3       1.03296    0.99253    1.29123   1.00
C3       1.03244    0.98947    1.20886   1.00
C2       0.99943    0.99895    1.35512   1.00
C2       1.00057    1.00105    1.14488   1.00
C3       0.96419    1.00500    1.33462   1.00
C3       0.96586    1.01004    1.16519   1.00
C3       1.03333    0.99219    1.33258   1.00
C3       1.03369    0.99168    1.16762   1.00
H1       0.93645    1.00883    1.28115   1.00
H1       0.93854    1.01725    1.21852   1.00
C5       1.06811    0.98643    1.27020   1.00
C5       1.06608    0.97762    1.22980   1.00
H1       0.93866    1.00969    1.34955   1.00
H1       0.94101    1.01726    1.15010   1.00
H1       1.05900    0.98656    1.34680   1.00
H1       1.05962    0.98683    1.15368   1.00
O3       1.10332    0.98688    1.28961   1.00
O3       1.09739    0.96052    1.21099   1.00
Si1      1.12830    1.02736    1.29247   1.00
Si1      1.09647    0.91362    1.20279   1.00
C6       1.16413    1.01043    1.32538   1.00
C6       1.14841    1.03635    1.24598   1.00
C6       1.10145    1.06649    1.31253   1.00
C6       1.05449    0.88717    1.21693   1.00
C6       1.10223    0.91058    1.15198   1.00
C6       1.13836    0.89351    1.22477   1.00
C6       1.14855    0.98776    1.36194   1.00
H2       1.17955    0.98869    1.30791   1.00
C6       1.19656    1.03851    1.34147   1.00
H2       1.14967    1.00705    1.23358   1.00
C6       1.12428    1.06133    1.21634   1.00
C6       1.19101    1.05261    1.24336   1.00
H2       1.08829    1.05308    1.33831   1.00
C6       1.12513    1.10254    1.32772   1.00
C6       1.06705    1.08501    1.28849   1.00
C6       1.04173    0.88894    1.26071   1.00
C6       1.01618    0.89079    1.19225   1.00
H2       1.06359    0.85703    1.21212   1.00
H2       1.07470    0.92173    1.14051   1.00
C6       1.13461    0.93721    1.13378   1.00
C6       1.10786    0.86905    1.13393   1.00
H2       1.16161    0.89922    1.20375   1.00
C6       1.15231    0.91315    1.26336   1.00
C6       1.13911    0.84846    1.23244   1.00
H2       1.13019    0.96312    1.35346   1.00
H2       1.13137    1.00680    1.38090   1.00
H2       1.17257    0.97575    1.37917   1.00
H2       1.22369    1.02235    1.34608   1.00
H2       1.20303    1.06252    1.32178   1.00
H2       1.18870    1.05117    1.36964   1.00
H2       1.13564    1.05779    1.18672   1.00
H2       1.09380    1.05250    1.21532   1.00
H2       1.12572    1.09233    1.22352   1.00
H2       1.21163    1.03374    1.25862   1.00
H2       1.20104    1.05404    1.21308   1.00
H2       1.19287    1.08202    1.25550   1.00
H2       1.14455    1.11388    1.30514   1.00
H2       1.10605    1.12637    1.33708   1.00
H2       1.14229    1.09512    1.35332   1.00
H2       1.07712    1.10812    1.26902   1.00
H2       1.05140    1.06411    1.27068   1.00
H2       1.04567    1.09808    1.30828   1.00
H2       1.02439    0.91485    1.26688   1.00
H2       1.02368    0.86368    1.26809   1.00
H2       1.06658    0.88867    1.28048   1.00
H2       0.99489    0.86877    1.20125   1.00
H2       1.00222    0.91908    1.19574   1.00
H2       1.02138    0.88599    1.16122   1.00
H2       1.13155    0.93835    1.10202   1.00
H2       1.13232    0.96721    1.14435   1.00
H2       1.16389    0.92657    1.14035   1.00
H2       1.08567    0.84864    1.14416   1.00
H2       1.10537    0.87031    1.10212   1.00
H2       1.13660    0.85714    1.14085   1.00
H2       1.13067    0.91073    1.28656   1.00
H2       1.17963    0.90048    1.27381   1.00
H2       1.15773    0.94395    1.25834   1.00
H2       1.16846    0.83881    1.24044   1.00
H2       1.11947    0.84035    1.25622   1.00
H2       1.13077    0.83194    1.20657   1.00
C4       0.99883    1.27084    0.99719   1.00
C4       0.99951    1.22912    0.99745   1.00
C3       1.00471    1.29364    0.96310   1.00
C3       1.00963    1.20616    0.96447   1.00
C3       0.99253    1.29123    1.03296   1.00
C3       0.98947    1.20886    1.03244   1.00
C2       0.99895    1.35512    0.99943   1.00
C2       1.00105    1.14488    1.00057   1.00
C3       1.00500    1.33462    0.96419   1.00
C3       1.01004    1.16519    0.96586   1.00
C3       0.99219    1.33258    1.03333   1.00
C3       0.99168    1.16762    1.03369   1.00
H1       1.00883    1.28115    0.93645   1.00
H1       1.01725    1.21852    0.93854   1.00
C5       0.98643    1.27020    1.06811   1.00
C5       0.97762    1.22980    1.06608   1.00
H1       1.00969    1.34955    0.93866   1.00
H1       1.01726    1.15010    0.94101   1.00
H1       0.98656    1.34680    1.05900   1.00
H1       0.98683    1.15368    1.05962   1.00
O3       0.98688    1.28961    1.10332   1.00
O3       0.96052    1.21099    1.09739   1.00
Si1      1.02736    1.29247    1.12830   1.00
Si1      0.91362    1.20279    1.09647   1.00
C6       1.01043    1.32538    1.16413   1.00
C6       1.03635    1.24598    1.14841   1.00
C6       1.06649    1.31253    1.10145   1.00
C6       0.88717    1.21693    1.05449   1.00
C6       0.91058    1.15198    1.10223   1.00
C6       0.89351    1.22477    1.13836   1.00
C6       0.98776    1.36194    1.14855   1.00
H2       0.98869    1.30791    1.17955   1.00
C6       1.03851    1.34147    1.19656   1.00
H2       1.00705    1.23358    1.14967   1.00
C6       1.06133    1.21634    1.12428   1.00
C6       1.05261    1.24336    1.19101   1.00
H2       1.05308    1.33831    1.08829   1.00
C6       1.10254    1.32772    1.12513   1.00
C6       1.08501    1.28849    1.06705   1.00
C6       0.88894    1.26071    1.04173   1.00
C6       0.89079    1.19225    1.01618   1.00
H2       0.85703    1.21212    1.06359   1.00
H2       0.92173    1.14051    1.07470   1.00
C6       0.93721    1.13378    1.13461   1.00
C6       0.86905    1.13393    1.10786   1.00
H2       0.89922    1.20375    1.16161   1.00
C6       0.91315    1.26336    1.15231   1.00
C6       0.84846    1.23244    1.13911   1.00
H2       0.96312    1.35346    1.13019   1.00
H2       1.00680    1.38090    1.13137   1.00
H2       0.97575    1.37917    1.17257   1.00
H2       1.02235    1.34608    1.22369   1.00
H2       1.06252    1.32178    1.20303   1.00
H2       1.05117    1.36964    1.18870   1.00
H2       1.05779    1.18672    1.13564   1.00
H2       1.05250    1.21532    1.09380   1.00
H2       1.09233    1.22352    1.12572   1.00
H2       1.03374    1.25862    1.21163   1.00
H2       1.05404    1.21308    1.20104   1.00
H2       1.08202    1.25550    1.19287   1.00
H2       1.11388    1.30514    1.14455   1.00
H2       1.12637    1.33708    1.10605   1.00
H2       1.09512    1.35332    1.14229   1.00
H2       1.10812    1.26902    1.07712   1.00
H2       1.06411    1.27068    1.05140   1.00
H2       1.09808    1.30828    1.04567   1.00
H2       0.91485    1.26688    1.02439   1.00
H2       0.86368    1.26809    1.02368   1.00
H2       0.88867    1.28048    1.06658   1.00
H2       0.86877    1.20125    0.99489   1.00
H2       0.91908    1.19574    1.00222   1.00
H2       0.88599    1.16122    1.02138   1.00
H2       0.93835    1.10202    1.13155   1.00
H2       0.96721    1.14435    1.13232   1.00
H2       0.92657    1.14035    1.16389   1.00
H2       0.84864    1.14416    1.08567   1.00
H2       0.87031    1.10212    1.10537   1.00
H2       0.85714    1.14085    1.13660   1.00
H2       0.91073    1.28656    1.13067   1.00
H2       0.90048    1.27381    1.17963   1.00
H2       0.94395    1.25834    1.15773   1.00
H2       0.83881    1.24044    1.16846   1.00
H2       0.84035    1.25622    1.11947   1.00
H2       0.83194    1.20657    1.13077   1.00
C4       0.72916    0.99719    1.00117   1.00
C4       0.77088    0.99745    1.00049   1.00
C3       0.70636    0.96310    0.99529   1.00
C3       0.79384    0.96447    0.99037   1.00
C3       0.70877    1.03296    1.00747   1.00
C3       0.79114    1.03244    1.01053   1.00
C2       0.64488    0.99943    1.00105   1.00
C2       0.85512    1.00057    0.99895   1.00
C3       0.66538    0.96419    0.99500   1.00
C3       0.83481    0.96586    0.98996   1.00
C3       0.66742    1.03333    1.00781   1.00
C3       0.83238    1.03369    1.00832   1.00
H1       0.71885    0.93645    0.99117   1.00
H1       0.78148    0.93854    0.98275   1.00
C5       0.72980    1.06811    1.01357   1.00
C5       0.77020    1.06608    1.02238   1.00
H1       0.65045    0.93866    0.99031   1.00
H1       0.84990    0.94101    0.98274   1.00
H1       0.65320    1.05900    1.01344   1.00
H1       0.84632    1.05962    1.01317   1.00
O3       0.71039    1.10332    1.01312   1.00
O3       0.78901    1.09739    1.03948   1.00
Si1      0.70753    1.12830    0.97264   1.00
Si1      0.79721    1.09647    1.08638   1.00
C6       0.67462    1.16413    0.98957   1.00
C6       0.75402    1.14841    0.96365   1.00
C6       0.68747    1.10145    0.93351   1.00
C6       0.78307    1.05449    1.11283   1.00
C6       0.84802    1.10223    1.08942   1.00
C6       0.77523    1.13836    1.10649   1.00
C6       0.63806    1.14855    1.01224   1.00
H2       0.69209    1.17955    1.01131   1.00
C6       0.65853    1.19656    0.96149   1.00
H2       0.76642    1.14967    0.99295   1.00
C6       0.78366    1.12428    0.93867   1.00
C6       0.75664    1.19101    0.94739   1.00
H2       0.66169    1.08829    0.94692   1.00
C6       0.67228    1.12513    0.89746   1.00
C6       0.71151    1.06705    0.91499   1.00
C6       0.73929    1.04173    1.11106   1.00
C6       0.80775    1.01618    1.10921   1.00
H2       0.78788    1.06359    1.14297   1.00
H2       0.85949    1.07470    1.07827   1.00
C6       0.86622    1.13461    1.06279   1.00
C6       0.86607    1.10786    1.13095   1.00
H2       0.79625    1.16161    1.10078   1.00
C6       0.73664    1.15231    1.08685   1.00
C6       0.76756    1.13911    1.15154   1.00
H2       0.64654    1.13019    1.03688   1.00
H2       0.61910    1.13137    0.99320   1.00
H2       0.62083    1.17257    1.02425   1.00
H2       0.65392    1.22369    0.97765   1.00
H2       0.67822    1.20303    0.93748   1.00
H2       0.63036    1.18870    0.94883   1.00
H2       0.81328    1.13564    0.94221   1.00
H2       0.78468    1.09380    0.94750   1.00
H2       0.77648    1.12572    0.90767   1.00
H2       0.74138    1.21163    0.96626   1.00
H2       0.78692    1.20104    0.94596   1.00
H2       0.74450    1.19287    0.91798   1.00
H2       0.69486    1.14455    0.88612   1.00
H2       0.66292    1.10605    0.87363   1.00
H2       0.64668    1.14229    0.90488   1.00
H2       0.73098    1.07712    0.89188   1.00
H2       0.72932    1.05140    0.93589   1.00
H2       0.69172    1.04567    0.90192   1.00
H2       0.73312    1.02439    1.08515   1.00
H2       0.73191    1.02368    1.13632   1.00
H2       0.71952    1.06658    1.11133   1.00
H2       0.79875    0.99489    1.13123   1.00
H2       0.80426    1.00222    1.08092   1.00
H2       0.83878    1.02138    1.11401   1.00
H2       0.89798    1.13155    1.06165   1.00
H2       0.85565    1.13232    1.03279   1.00
H2       0.85965    1.16389    1.07343   1.00
H2       0.85584    1.08567    1.15136   1.00
H2       0.89788    1.10537    1.12969   1.00
H2       0.85915    1.13660    1.14286   1.00
H2       0.71344    1.13067    1.08927   1.00
H2       0.72619    1.17963    1.09952   1.00
H2       0.74166    1.15773    1.05605   1.00
H2       0.75956    1.16846    1.16119   1.00
H2       0.74378    1.11947    1.15965   1.00
H2       0.79343    1.13077    1.16806   1.00
C4       1.27084    0.99719    0.99883   1.00
C4       1.22912    0.99745    0.99951   1.00
C3       1.29364    0.96310    1.00471   1.00
C3       1.20616    0.96447    1.00963   1.00
C3       1.29123    1.03296    0.99253   1.00
C3       1.20886    1.03244    0.98947   1.00
C2       1.35512    0.99943    0.99895   1.00
C2       1.14488    1.00057    1.00105   1.00
C3       1.33462    0.96419    1.00500   1.00
C3       1.16519    0.96586    1.01004   1.00
C3       1.33258    1.03333    0.99219   1.00
C3       1.16762    1.03369    0.99168   1.00
H1       1.28115    0.93645    1.00883   1.00
H1       1.21852    0.93854    1.01725   1.00
C5       1.27020    1.06811    0.98643   1.00
C5       1.22980    1.06608    0.97762   1.00
H1       1.34955    0.93866    1.00969   1.00
H1       1.15010    0.94101    1.01726   1.00
H1       1.34680    1.05900    0.98656   1.00
H1       1.15368    1.05962    0.98683   1.00
O3       1.28961    1.10332    0.98688   1.00
O3       1.21099    1.09739    0.96052   1.00
Si1      1.29247    1.12830    1.02736   1.00
Si1      1.20279    1.09647    0.91362   1.00
C6       1.32538    1.16413    1.01043   1.00
C6       1.24598    1.14841    1.03635   1.00
C6       1.31253    1.10145    1.06649   1.00
C6       1.21693    1.05449    0.88717   1.00
C6       1.15198    1.10223    0.91058   1.00
C6       1.22477    1.13836    0.89351   1.00
C6       1.36194    1.14855    0.98776   1.00
H2       1.30791    1.17955    0.98869   1.00
C6       1.34147    1.19656    1.03851   1.00
H2       1.23358    1.14967    1.00705   1.00
C6       1.21634    1.12428    1.06133   1.00
C6       1.24336    1.19101    1.05261   1.00
H2       1.33831    1.08829    1.05308   1.00
C6       1.32772    1.12513    1.10254   1.00
C6       1.28849    1.06705    1.08501   1.00
C6       1.26071    1.04173    0.88894   1.00
C6       1.19225    1.01618    0.89079   1.00
H2       1.21212    1.06359    0.85703   1.00
H2       1.14051    1.07470    0.92173   1.00
C6       1.13378    1.13461    0.93721   1.00
C6       1.13393    1.10786    0.86905   1.00
H2       1.20375    1.16161    0.89922   1.00
C6       1.26336    1.15231    0.91315   1.00
C6       1.23244    1.13911    0.84846   1.00
H2       1.35346    1.13019    0.96312   1.00
H2       1.38090    1.13137    1.00680   1.00
H2       1.37917    1.17257    0.97575   1.00
H2       1.34608    1.22369    1.02235   1.00
H2       1.32178    1.20303    1.06252   1.00
H2       1.36964    1.18870    1.05117   1.00
H2       1.18672    1.13564    1.05779   1.00
H2       1.21532    1.09380    1.05250   1.00
H2       1.22352    1.12572    1.09233   1.00
H2       1.25862    1.21163    1.03374   1.00
H2       1.21308    1.20104    1.05404   1.00
H2       1.25550    1.19287    1.08202   1.00
H2       1.30514    1.14455    1.11388   1.00
H2       1.33708    1.10605    1.12637   1.00
H2       1.35332    1.14229    1.09512   1.00
H2       1.26902    1.07712    1.10812   1.00
H2       1.27068    1.05140    1.06411   1.00
H2       1.30828    1.04567    1.09808   1.00
H2       1.26688    1.02439    0.91485   1.00
H2       1.26809    1.02368    0.86368   1.00
H2       1.28048    1.06658    0.88867   1.00
H2       1.20125    0.99489    0.86877   1.00
H2       1.19574    1.00222    0.91908   1.00
H2       1.16122    1.02138    0.88599   1.00
H2       1.10202    1.13155    0.93835   1.00
H2       1.14435    1.13232    0.96721   1.00
H2       1.14035    1.16389    0.92657   1.00
H2       1.14416    1.08567    0.84864   1.00
H2       1.10212    1.10537    0.87031   1.00
H2       1.14085    1.13660    0.85714   1.00
H2       1.28656    1.13067    0.91073   1.00
H2       1.27381    1.17963    0.90048   1.00
H2       1.25834    1.15773    0.94395   1.00
H2       1.24044    1.16846    0.83881   1.00
H2       1.25622    1.11947    0.84035   1.00
H2       1.20657    1.13077    0.83194   1.00
C4       1.00117    0.72916    0.99719   1.00
C4       1.00049    0.77088    0.99745   1.00
C3       0.99529    0.70636    0.96310   1.00
C3       0.99037    0.79384    0.96447   1.00
C3       1.00747    0.70877    1.03296   1.00
C3       1.01053    0.79114    1.03244   1.00
C2       1.00105    0.64488    0.99943   1.00
C2       0.99895    0.85512    1.00057   1.00
C3       0.99500    0.66538    0.96419   1.00
C3       0.98996    0.83481    0.96586   1.00
C3       1.00781    0.66742    1.03333   1.00
C3       1.00832    0.83238    1.03369   1.00
H1       0.99117    0.71885    0.93645   1.00
H1       0.98275    0.78148    0.93854   1.00
C5       1.01357    0.72980    1.06811   1.00
C5       1.02238    0.77020    1.06608   1.00
H1       0.99031    0.65045    0.93866   1.00
H1       0.98274    0.84990    0.94101   1.00
H1       1.01344    0.65320    1.05900   1.00
H1       1.01317    0.84632    1.05962   1.00
O3       1.01312    0.71039    1.10332   1.00
O3       1.03948    0.78901    1.09739   1.00
Si1      0.97264    0.70753    1.12830   1.00
Si1      1.08638    0.79721    1.09647   1.00
C6       0.98957    0.67462    1.16413   1.00
C6       0.96365    0.75402    1.14841   1.00
C6       0.93351    0.68747    1.10145   1.00
C6       1.11283    0.78307    1.05449   1.00
C6       1.08942    0.84802    1.10223   1.00
C6       1.10649    0.77523    1.13836   1.00
C6       1.01224    0.63806    1.14855   1.00
H2       1.01131    0.69209    1.17955   1.00
C6       0.96149    0.65853    1.19656   1.00
H2       0.99295    0.76642    1.14967   1.00
C6       0.93867    0.78366    1.12428   1.00
C6       0.94739    0.75664    1.19101   1.00
H2       0.94692    0.66169    1.08829   1.00
C6       0.89746    0.67228    1.12513   1.00
C6       0.91499    0.71151    1.06705   1.00
C6       1.11106    0.73929    1.04173   1.00
C6       1.10921    0.80775    1.01618   1.00
H2       1.14297    0.78788    1.06359   1.00
H2       1.07827    0.85949    1.07470   1.00
C6       1.06279    0.86622    1.13461   1.00
C6       1.13095    0.86607    1.10786   1.00
H2       1.10078    0.79625    1.16161   1.00
C6       1.08685    0.73664    1.15231   1.00
C6       1.15154    0.76756    1.13911   1.00
H2       1.03688    0.64654    1.13019   1.00
H2       0.99320    0.61910    1.13137   1.00
H2       1.02425    0.62083    1.17257   1.00
H2       0.97765    0.65392    1.22369   1.00
H2       0.93748    0.67822    1.20303   1.00
H2       0.94883    0.63036    1.18870   1.00
H2       0.94221    0.81328    1.13564   1.00
H2       0.94750    0.78468    1.09380   1.00
H2       0.90767    0.77648    1.12572   1.00
H2       0.96626    0.74138    1.21163   1.00
H2       0.94596    0.78692    1.20104   1.00
H2       0.91798    0.74450    1.19287   1.00
H2       0.88612    0.69486    1.14455   1.00
H2       0.87363    0.66292    1.10605   1.00
H2       0.90488    0.64668    1.14229   1.00
H2       0.89188    0.73098    1.07712   1.00
H2       0.93589    0.72932    1.05140   1.00
H2       0.90192    0.69172    1.04567   1.00
H2       1.08515    0.73312    1.02439   1.00
H2       1.13632    0.73191    1.02368   1.00
H2       1.11133    0.71952    1.06658   1.00
H2       1.13123    0.79875    0.99489   1.00
H2       1.08092    0.80426    1.00222   1.00
H2       1.11401    0.83878    1.02138   1.00
H2       1.06165    0.89798    1.13155   1.00
H2       1.03279    0.85565    1.13232   1.00
H2       1.07343    0.85965    1.16389   1.00
H2       1.15136    0.85584    1.08567   1.00
H2       1.12969    0.89788    1.10537   1.00
H2       1.14286    0.85915    1.13660   1.00
H2       1.08927    0.71344    1.13067   1.00
H2       1.09952    0.72619    1.17963   1.00
H2       1.05605    0.74166    1.15773   1.00
H2       1.16119    0.75956    1.16846   1.00
H2       1.15965    0.74378    1.11947   1.00
H2       1.16806    0.79343    1.13077   1.00
C4       0.99719    1.00117    0.72916   1.00
C4       0.99745    1.00049    0.77088   1.00
C3       0.96310    0.99529    0.70636   1.00
C3       0.96447    0.99037    0.79384   1.00
C3       1.03296    1.00747    0.70877   1.00
C3       1.03244    1.01053    0.79114   1.00
C2       0.99943    1.00105    0.64488   1.00
C2       1.00057    0.99895    0.85512   1.00
C3       0.96419    0.99500    0.66538   1.00
C3       0.96586    0.98996    0.83481   1.00
C3       1.03333    1.00781    0.66742   1.00
C3       1.03369    1.00832    0.83238   1.00
H1       0.93645    0.99117    0.71885   1.00
H1       0.93854    0.98275    0.78148   1.00
C5       1.06811    1.01357    0.72980   1.00
C5       1.06608    1.02238    0.77020   1.00
H1       0.93866    0.99031    0.65045   1.00
H1       0.94101    0.98274    0.84990   1.00
H1       1.05900    1.01344    0.65320   1.00
H1       1.05962    1.01317    0.84632   1.00
O3       1.10332    1.01312    0.71039   1.00
O3       1.09739    1.03948    0.78901   1.00
Si1      1.12830    0.97264    0.70753   1.00
Si1      1.09647    1.08638    0.79721   1.00
C6       1.16413    0.98957    0.67462   1.00
C6       1.14841    0.96365    0.75402   1.00
C6       1.10145    0.93351    0.68747   1.00
C6       1.05449    1.11283    0.78307   1.00
C6       1.10223    1.08942    0.84802   1.00
C6       1.13836    1.10649    0.77523   1.00
C6       1.14855    1.01224    0.63806   1.00
H2       1.17955    1.01131    0.69209   1.00
C6       1.19656    0.96149    0.65853   1.00
H2       1.14967    0.99295    0.76642   1.00
C6       1.12428    0.93867    0.78366   1.00
C6       1.19101    0.94739    0.75664   1.00
H2       1.08829    0.94692    0.66169   1.00
C6       1.12513    0.89746    0.67228   1.00
C6       1.06705    0.91499    0.71151   1.00
C6       1.04173    1.11106    0.73929   1.00
C6       1.01618    1.10921    0.80775   1.00
H2       1.06359    1.14297    0.78788   1.00
H2       1.07470    1.07827    0.85949   1.00
C6       1.13461    1.06279    0.86622   1.00
C6       1.10786    1.13095    0.86607   1.00
H2       1.16161    1.10078    0.79625   1.00
C6       1.15231    1.08685    0.73664   1.00
C6       1.13911    1.15154    0.76756   1.00
H2       1.13019    1.03688    0.64654   1.00
H2       1.13137    0.99320    0.61910   1.00
H2       1.17257    1.02425    0.62083   1.00
H2       1.22369    0.97765    0.65392   1.00
H2       1.20303    0.93748    0.67822   1.00
H2       1.18870    0.94883    0.63036   1.00
H2       1.13564    0.94221    0.81328   1.00
H2       1.09380    0.94750    0.78468   1.00
H2       1.12572    0.90767    0.77648   1.00
H2       1.21163    0.96626    0.74138   1.00
H2       1.20104    0.94596    0.78692   1.00
H2       1.19287    0.91798    0.74450   1.00
H2       1.14455    0.88612    0.69486   1.00
H2       1.10605    0.87363    0.66292   1.00
H2       1.14229    0.90488    0.64668   1.00
H2       1.07712    0.89188    0.73098   1.00
H2       1.05140    0.93589    0.72932   1.00
H2       1.04567    0.90192    0.69172   1.00
H2       1.02439    1.08515    0.73312   1.00
H2       1.02368    1.13632    0.73191   1.00
H2       1.06658    1.11133    0.71952   1.00
H2       0.99489    1.13123    0.79875   1.00
H2       1.00222    1.08092    0.80426   1.00
H2       1.02138    1.11401    0.83878   1.00
H2       1.13155    1.06165    0.89798   1.00
H2       1.13232    1.03279    0.85565   1.00
H2       1.16389    1.07343    0.85965   1.00
H2       1.08567    1.15136    0.85584   1.00
H2       1.10537    1.12969    0.89788   1.00
H2       1.13660    1.14286    0.85915   1.00
H2       1.13067    1.08927    0.71344   1.00
H2       1.17963    1.09952    0.72619   1.00
H2       1.15773    1.05605    0.74166   1.00
H2       1.16846    1.16119    0.75956   1.00
H2       1.11947    1.15965    0.74378   1.00
H2       1.13077    1.16806    0.79343   1.00
C4       0.49719    0.49883    1.27084   1.00
C4       0.49745    0.49951    1.22912   1.00
C3       0.46310    0.50471    1.29364   1.00
C3       0.46447    0.50963    1.20616   1.00
C3       0.53296    0.49253    1.29123   1.00
C3       0.53244    0.48947    1.20886   1.00
C2       0.49943    0.49895    1.35512   1.00
C2       0.50057    0.50105    1.14488   1.00
C3       0.46419    0.50500    1.33462   1.00
C3       0.46586    0.51004    1.16519   1.00
C3       0.53333    0.49219    1.33258   1.00
C3       0.53369    0.49168    1.16762   1.00
H1       0.43645    0.50883    1.28115   1.00
H1       0.43854    0.51725    1.21852   1.00
C5       0.56811    0.48643    1.27020   1.00
C5       0.56608    0.47762    1.22980   1.00
H1       0.43866    0.50969    1.34955   1.00
H1       0.44101    0.51726    1.15010   1.00
H1       0.55900    0.48656    1.34680   1.00
H1       0.55962    0.48683    1.15368   1.00
O3       0.60332    0.48688    1.28961   1.00
O3       0.59739    0.46052    1.21099   1.00
Si1      0.62830    0.52736    1.29247   1.00
Si1      0.59647    0.41362    1.20279   1.00
C6       0.66413    0.51043    1.32538   1.00
C6       0.64841    0.53635    1.24598   1.00
C6       0.60145    0.56649    1.31253   1.00
C6       0.55449    0.38717    1.21693   1.00
C6       0.60223    0.41058    1.15198   1.00
C6       0.63836    0.39351    1.22477   1.00
C6       0.64855    0.48776    1.36194   1.00
H2       0.67955    0.48869    1.30791   1.00
C6       0.69656    0.53851    1.34147   1.00
H2       0.64967    0.50705    1.23358   1.00
C6       0.62428    0.56133    1.21634   1.00
C6       0.69101    0.55261    1.24336   1.00
H2       0.58829    0.55308    1.33831   1.00
C6       0.62513    0.60254    1.32772   1.00
C6       0.56705    0.58501    1.28849   1.00
C6       0.54173    0.38894    1.26071   1.00
C6       0.51618    0.39079    1.19225   1.00
H2       0.56359    0.35703    1.21212   1.00
H2       0.57470    0.42173    1.14051   1.00
C6       0.63461    0.43721    1.13378   1.00
C6       0.60786    0.36905    1.13393   1.00
H2       0.66161    0.39922    1.20375   1.00
C6       0.65231    0.41315    1.26336   1.00
C6       0.63911    0.34846    1.23244   1.00
H2       0.63019    0.46312    1.35346   1.00
H2       0.63137    0.50680    1.38090   1.00
H2       0.67257    0.47575    1.37917   1.00
H2       0.72369    0.52235    1.34608   1.00
H2       0.70303    0.56252    1.32178   1.00
H2       0.68870    0.55117    1.36964   1.00
H2       0.63564    0.55779    1.18672   1.00
H2       0.59380    0.55250    1.21532   1.00
H2       0.62572    0.59233    1.22352   1.00
H2       0.71163    0.53374    1.25862   1.00
H2       0.70104    0.55404    1.21308   1.00
H2       0.69287    0.58202    1.25550   1.00
H2       0.64455    0.61388    1.30514   1.00
H2       0.60605    0.62637    1.33708   1.00
H2       0.64229    0.59512    1.35332   1.00
H2       0.57712    0.60812    1.26902   1.00
H2       0.55140    0.56411    1.27068   1.00
H2       0.54567    0.59808    1.30828   1.00
H2       0.52439    0.41485    1.26688   1.00
H2       0.52368    0.36368    1.26809   1.00
H2       0.56658    0.38867    1.28048   1.00
H2       0.49489    0.36877    1.20125   1.00
H2       0.50222    0.41908    1.19574   1.00
H2       0.52138    0.38599    1.16122   1.00
H2       0.63155    0.43835    1.10202   1.00
H2       0.63232    0.46721    1.14435   1.00
H2       0.66389    0.42657    1.14035   1.00
H2       0.58567    0.34864    1.14416   1.00
H2       0.60537    0.37031    1.10212   1.00
H2       0.63660    0.35714    1.14085   1.00
H2       0.63067    0.41073    1.28656   1.00
H2       0.67963    0.40048    1.27381   1.00
H2       0.65773    0.44395    1.25834   1.00
H2       0.66846    0.33881    1.24044   1.00
H2       0.61947    0.34035    1.25622   1.00
H2       0.63077    0.33194    1.20657   1.00
C4       0.49883    0.77084    0.99719   1.00
C4       0.49951    0.72912    0.99745   1.00
C3       0.50471    0.79364    0.96310   1.00
C3       0.50963    0.70616    0.96447   1.00
C3       0.49253    0.79123    1.03296   1.00
C3       0.48947    0.70886    1.03244   1.00
C2       0.49895    0.85512    0.99943   1.00
C2       0.50105    0.64488    1.00057   1.00
C3       0.50500    0.83462    0.96419   1.00
C3       0.51004    0.66519    0.96586   1.00
C3       0.49219    0.83258    1.03333   1.00
C3       0.49168    0.66762    1.03369   1.00
H1       0.50883    0.78115    0.93645   1.00
H1       0.51725    0.71852    0.93854   1.00
C5       0.48643    0.77020    1.06811   1.00
C5       0.47762    0.72980    1.06608   1.00
H1       0.50969    0.84955    0.93866   1.00
H1       0.51726    0.65010    0.94101   1.00
H1       0.48656    0.84680    1.05900   1.00
H1       0.48683    0.65368    1.05962   1.00
O3       0.48688    0.78961    1.10332   1.00
O3       0.46052    0.71099    1.09739   1.00
Si1      0.52736    0.79247    1.12830   1.00
Si1      0.41362    0.70279    1.09647   1.00
C6       0.51043    0.82538    1.16413   1.00
C6       0.53635    0.74598    1.14841   1.00
C6       0.56649    0.81253    1.10145   1.00
C6       0.38717    0.71693    1.05449   1.00
C6       0.41058    0.65198    1.10223   1.00
C6       0.39351    0.72477    1.13836   1.00
C6       0.48776    0.86194    1.14855   1.00
H2       0.48869    0.80791    1.17955   1.00
C6       0.53851    0.84147    1.19656   1.00
H2       0.50705    0.73358    1.14967   1.00
C6       0.56133    0.71634    1.12428   1.00
C6       0.55261    0.74336    1.19101   1.00
H2       0.55308    0.83831    1.08829   1.00
C6       0.60254    0.82772    1.12513   1.00
C6       0.58501    0.78849    1.06705   1.00
C6       0.38894    0.76071    1.04173   1.00
C6       0.39079    0.69225    1.01618   1.00
H2       0.35703    0.71212    1.06359   1.00
H2       0.42173    0.64051    1.07470   1.00
C6       0.43721    0.63378    1.13461   1.00
C6       0.36905    0.63393    1.10786   1.00
H2       0.39922    0.70375    1.16161   1.00
C6       0.41315    0.76336    1.15231   1.00
C6       0.34846    0.73244    1.13911   1.00
H2       0.46312    0.85346    1.13019   1.00
H2       0.50680    0.88090    1.13137   1.00
H2       0.47575    0.87917    1.17257   1.00
H2       0.52235    0.84608    1.22369   1.00
H2       0.56252    0.82178    1.20303   1.00
H2       0.55117    0.86964    1.18870   1.00
H2       0.55779    0.68672    1.13564   1.00
H2       0.55250    0.71532    1.09380   1.00
H2       0.59233    0.72352    1.12572   1.00
H2       0.53374    0.75862    1.21163   1.00
H2       0.55404    0.71308    1.20104   1.00
H2       0.58202    0.75550    1.19287   1.00
H2       0.61388    0.80514    1.14455   1.00
H2       0.62637    0.83708    1.10605   1.00
H2       0.59512    0.85332    1.14229   1.00
H2       0.60812    0.76902    1.07712   1.00
H2       0.56411    0.77068    1.05140   1.00
H2       0.59808    0.80828    1.04567   1.00
H2       0.41485    0.76688    1.02439   1.00
H2       0.36368    0.76809    1.02368   1.00
H2       0.38867    0.78048    1.06658   1.00
H2       0.36877    0.70125    0.99489   1.00
H2       0.41908    0.69574    1.00222   1.00
H2       0.38599    0.66122    1.02138   1.00
H2       0.43835    0.60202    1.13155   1.00
H2       0.46721    0.64435    1.13232   1.00
H2       0.42657    0.64035    1.16389   1.00
H2       0.34864    0.64416    1.08567   1.00
H2       0.37031    0.60212    1.10537   1.00
H2       0.35714    0.64085    1.13660   1.00
H2       0.41073    0.78656    1.13067   1.00
H2       0.40048    0.77381    1.17963   1.00
H2       0.44395    0.75834    1.15773   1.00
H2       0.33881    0.74044    1.16846   1.00
H2       0.34035    0.75622    1.11947   1.00
H2       0.33194    0.70657    1.13077   1.00
C4       0.22916    0.49719    1.00117   1.00
C4       0.27088    0.49745    1.00049   1.00
C3       0.20636    0.46310    0.99529   1.00
C3       0.29384    0.46447    0.99037   1.00
C3       0.20877    0.53296    1.00747   1.00
C3       0.29114    0.53244    1.01053   1.00
C2       0.14488    0.49943    1.00105   1.00
C2       0.35512    0.50057    0.99895   1.00
C3       0.16538    0.46419    0.99500   1.00
C3       0.33481    0.46586    0.98996   1.00
C3       0.16742    0.53333    1.00781   1.00
C3       0.33238    0.53369    1.00832   1.00
H1       0.21885    0.43645    0.99117   1.00
H1       0.28148    0.43854    0.98275   1.00
C5       0.22980    0.56811    1.01357   1.00
C5       0.27020    0.56608    1.02238   1.00
H1       0.15045    0.43866    0.99031   1.00
H1       0.34990    0.44101    0.98274   1.00
H1       0.15320    0.55900    1.01344   1.00
H1       0.34632    0.55962    1.01317   1.00
O3       0.21039    0.60332    1.01312   1.00
O3       0.28901    0.59739    1.03948   1.00
Si1      0.20753    0.62830    0.97264   1.00
Si1      0.29721    0.59647    1.08638   1.00
C6       0.17462    0.66413    0.98957   1.00
C6       0.25402    0.64841    0.96365   1.00
C6       0.18747    0.60145    0.93351   1.00
C6       0.28307    0.55449    1.11283   1.00
C6       0.34802    0.60223    1.08942   1.00
C6       0.27523    0.63836    1.10649   1.00
C6       0.13806    0.64855    1.01224   1.00
H2       0.19209    0.67955    1.01131   1.00
C6       0.15853    0.69656    0.96149   1.00
H2       0.26642    0.64967    0.99295   1.00
C6       0.28366    0.62428    0.93867   1.00
C6       0.25664    0.69101    0.94739   1.00
H2       0.16169    0.58829    0.94692   1.00
C6       0.17228    0.62513    0.89746   1.00
C6       0.21151    0.56705    0.91499   1.00
C6       0.23929    0.54173    1.11106   1.00
C6       0.30775    0.51618    1.10921   1.00
H2       0.28788    0.56359    1.14297   1.00
H2       0.35949    0.57470    1.07827   1.00
C6       0.36622    0.63461    1.06279   1.00
C6       0.36607    0.60786    1.13095   1.00
H2       0.29625    0.66161    1.10078   1.00
C6       0.23664    0.65231    1.08685   1.00
C6       0.26756    0.63911    1.15154   1.00
H2       0.14654    0.63019    1.03688   1.00
H2       0.11910    0.63137    0.99320   1.00
H2       0.12083    0.67257    1.02425   1.00
H2       0.15392    0.72369    0.97765   1.00
H2       0.17822    0.70303    0.93748   1.00
H2       0.13036    0.68870    0.94883   1.00
H2       0.31328    0.63564    0.94221   1.00
H2       0.28468    0.59380    0.94750   1.00
H2       0.27648    0.62572    0.90767   1.00
H2       0.24138    0.71163    0.96626   1.00
H2       0.28692    0.70104    0.94596   1.00
H2       0.24450    0.69287    0.91798   1.00
H2       0.19486    0.64455    0.88612   1.00
H2       0.16292    0.60605    0.87363   1.00
H2       0.14668    0.64229    0.90488   1.00
H2       0.23098    0.57712    0.89188   1.00
H2       0.22932    0.55140    0.93589   1.00
H2       0.19172    0.54567    0.90192   1.00
H2       0.23312    0.52439    1.08515   1.00
H2       0.23191    0.52368    1.13632   1.00
H2       0.21952    0.56658    1.11133   1.00
H2       0.29875    0.49489    1.13123   1.00
H2       0.30426    0.50222    1.08092   1.00
H2       0.33878    0.52138    1.11401   1.00
H2       0.39798    0.63155    1.06165   1.00
H2       0.35565    0.63232    1.03279   1.00
H2       0.35965    0.66389    1.07343   1.00
H2       0.35584    0.58567    1.15136   1.00
H2       0.39788    0.60537    1.12969   1.00
H2       0.35915    0.63660    1.14286   1.00
H2       0.21344    0.63067    1.08927   1.00
H2       0.22619    0.67963    1.09952   1.00
H2       0.24166    0.65773    1.05605   1.00
H2       0.25956    0.66846    1.16119   1.00
H2       0.24378    0.61947    1.15965   1.00
H2       0.29343    0.63077    1.16806   1.00
C4       0.77084    0.49719    0.99883   1.00
C4       0.72912    0.49745    0.99951   1.00
C3       0.79364    0.46310    1.00471   1.00
C3       0.70616    0.46447    1.00963   1.00
C3       0.79123    0.53296    0.99253   1.00
C3       0.70886    0.53244    0.98947   1.00
C2       0.85512    0.49943    0.99895   1.00
C2       0.64488    0.50057    1.00105   1.00
C3       0.83462    0.46419    1.00500   1.00
C3       0.66519    0.46586    1.01004   1.00
C3       0.83258    0.53333    0.99219   1.00
C3       0.66762    0.53369    0.99168   1.00
H1       0.78115    0.43645    1.00883   1.00
H1       0.71852    0.43854    1.01725   1.00
C5       0.77020    0.56811    0.98643   1.00
C5       0.72980    0.56608    0.97762   1.00
H1       0.84955    0.43866    1.00969   1.00
H1       0.65010    0.44101    1.01726   1.00
H1       0.84680    0.55900    0.98656   1.00
H1       0.65368    0.55962    0.98683   1.00
O3       0.78961    0.60332    0.98688   1.00
O3       0.71099    0.59739    0.96052   1.00
Si1      0.79247    0.62830    1.02736   1.00
Si1      0.70279    0.59647    0.91362   1.00
C6       0.82538    0.66413    1.01043   1.00
C6       0.74598    0.64841    1.03635   1.00
C6       0.81253    0.60145    1.06649   1.00
C6       0.71693    0.55449    0.88717   1.00
C6       0.65198    0.60223    0.91058   1.00
C6       0.72477    0.63836    0.89351   1.00
C6       0.86194    0.64855    0.98776   1.00
H2       0.80791    0.67955    0.98869   1.00
C6       0.84147    0.69656    1.03851   1.00
H2       0.73358    0.64967    1.00705   1.00
C6       0.71634    0.62428    1.06133   1.00
C6       0.74336    0.69101    1.05261   1.00
H2       0.83831    0.58829    1.05308   1.00
C6       0.82772    0.62513    1.10254   1.00
C6       0.78849    0.56705    1.08501   1.00
C6       0.76071    0.54173    0.88894   1.00
C6       0.69225    0.51618    0.89079   1.00
H2       0.71212    0.56359    0.85703   1.00
H2       0.64051    0.57470    0.92173   1.00
C6       0.63378    0.63461    0.93721   1.00
C6       0.63393    0.60786    0.86905   1.00
H2       0.70375    0.66161    0.89922   1.00
C6       0.76336    0.65231    0.91315   1.00
C6       0.73244    0.63911    0.84846   1.00
H2       0.85346    0.63019    0.96312   1.00
H2       0.88090    0.63137    1.00680   1.00
H2       0.87917    0.67257    0.97575   1.00
H2       0.84608    0.72369    1.02235   1.00
H2       0.82178    0.70303    1.06252   1.00
H2       0.86964    0.68870    1.05117   1.00
H2       0.68672    0.63564    1.05779   1.00
H2       0.71532    0.59380    1.05250   1.00
H2       0.72352    0.62572    1.09233   1.00
H2       0.75862    0.71163    1.03374   1.00
H2       0.71308    0.70104    1.05404   1.00
H2       0.75550    0.69287    1.08202   1.00
H2       0.80514    0.64455    1.11388   1.00
H2       0.83708    0.60605    1.12637   1.00
H2       0.85332    0.64229    1.09512   1.00
H2       0.76902    0.57712    1.10812   1.00
H2       0.77068    0.55140    1.06411   1.00
H2       0.80828    0.54567    1.09808   1.00
H2       0.76688    0.52439    0.91485   1.00
H2       0.76809    0.52368    0.86368   1.00
H2       0.78048    0.56658    0.88867   1.00
H2       0.70125    0.49489    0.86877   1.00
H2       0.69574    0.50222    0.91908   1.00
H2       0.66122    0.52138    0.88599   1.00
H2       0.60202    0.63155    0.93835   1.00
H2       0.64435    0.63232    0.96721   1.00
H2       0.64035    0.66389    0.92657   1.00
H2       0.64416    0.58567    0.84864   1.00
H2       0.60212    0.60537    0.87031   1.00
H2       0.64085    0.63660    0.85714   1.00
H2       0.78656    0.63067    0.91073   1.00
H2       0.77381    0.67963    0.90048   1.00
H2       0.75834    0.65773    0.94395   1.00
H2       0.74044    0.66846    0.83881   1.00
H2       0.75622    0.61947    0.84035   1.00
H2       0.70657    0.63077    0.83194   1.00
C4       0.50117    0.22916    0.99719   1.00
C4       0.50049    0.27088    0.99745   1.00
C3       0.49529    0.20636    0.96310   1.00
C3       0.49037    0.29384    0.96447   1.00
C3       0.50747    0.20877    1.03296   1.00
C3       0.51053    0.29114    1.03244   1.00
C2       0.50105    0.14488    0.99943   1.00
C2       0.49895    0.35512    1.00057   1.00
C3       0.49500    0.16538    0.96419   1.00
C3       0.48996    0.33481    0.96586   1.00
C3       0.50781    0.16742    1.03333   1.00
C3       0.50832    0.33238    1.03369   1.00
H1       0.49117    0.21885    0.93645   1.00
H1       0.48275    0.28148    0.93854   1.00
C5       0.51357    0.22980    1.06811   1.00
C5       0.52238    0.27020    1.06608   1.00
H1       0.49031    0.15045    0.93866   1.00
H1       0.48274    0.34990    0.94101   1.00
H1       0.51344    0.15320    1.05900   1.00
H1       0.51317    0.34632    1.05962   1.00
O3       0.51312    0.21039    1.10332   1.00
O3       0.53948    0.28901    1.09739   1.00
Si1      0.47264    0.20753    1.12830   1.00
Si1      0.58638    0.29721    1.09647   1.00
C6       0.48957    0.17462    1.16413   1.00
C6       0.46365    0.25402    1.14841   1.00
C6       0.43351    0.18747    1.10145   1.00
C6       0.61283    0.28307    1.05449   1.00
C6       0.58942    0.34802    1.10223   1.00
C6       0.60649    0.27523    1.13836   1.00
C6       0.51224    0.13806    1.14855   1.00
H2       0.51131    0.19209    1.17955   1.00
C6       0.46149    0.15853    1.19656   1.00
H2       0.49295    0.26642    1.14967   1.00
C6       0.43867    0.28366    1.12428   1.00
C6       0.44739    0.25664    1.19101   1.00
H2       0.44692    0.16169    1.08829   1.00
C6       0.39746    0.17228    1.12513   1.00
C6       0.41499    0.21151    1.06705   1.00
C6       0.61106    0.23929    1.04173   1.00
C6       0.60921    0.30775    1.01618   1.00
H2       0.64297    0.28788    1.06359   1.00
H2       0.57827    0.35949    1.07470   1.00
C6       0.56279    0.36622    1.13461   1.00
C6       0.63095    0.36607    1.10786   1.00
H2       0.60078    0.29625    1.16161   1.00
C6       0.58685    0.23664    1.15231   1.00
C6       0.65154    0.26756    1.13911   1.00
H2       0.53688    0.14654    1.13019   1.00
H2       0.49320    0.11910    1.13137   1.00
H2       0.52425    0.12083    1.17257   1.00
H2       0.47765    0.15392    1.22369   1.00
H2       0.43748    0.17822    1.20303   1.00
H2       0.44883    0.13036    1.18870   1.00
H2       0.44221    0.31328    1.13564   1.00
H2       0.44750    0.28468    1.09380   1.00
H2       0.40767    0.27648    1.12572   1.00
H2       0.46626    0.24138    1.21163   1.00
H2       0.44596    0.28692    1.20104   1.00
H2       0.41798    0.24450    1.19287   1.00
H2       0.38612    0.19486    1.14455   1.00
H2       0.37363    0.16292    1.10605   1.00
H2       0.40488    0.14668    1.14229   1.00
H2       0.39188    0.23098    1.07712   1.00
H2       0.43589    0.22932    1.05140   1.00
H2       0.40192    0.19172    1.04567   1.00
H2       0.58515    0.23312    1.02439   1.00
H2       0.63632    0.23191    1.02368   1.00
H2       0.61133    0.21952    1.06658   1.00
H2       0.63123    0.29875    0.99489   1.00
H2       0.58092    0.30426    1.00222   1.00
H2       0.61401    0.33878    1.02138   1.00
H2       0.56165    0.39798    1.13155   1.00
H2       0.53279    0.35565    1.13232   1.00
H2       0.57343    0.35965    1.16389   1.00
H2       0.65136    0.35584    1.08567   1.00
H2       0.62969    0.39788    1.10537   1.00
H2       0.64286    0.35915    1.13660   1.00
H2       0.58927    0.21344    1.13067   1.00
H2       0.59952    0.22619    1.17963   1.00
H2       0.55605    0.24166    1.15773   1.00
H2       0.66119    0.25956    1.16846   1.00
H2       0.65965    0.24378    1.11947   1.00
H2       0.66806    0.29343    1.13077   1.00
C4       0.49719    0.50117    0.72916   1.00
C4       0.49745    0.50049    0.77088   1.00
C3       0.46310    0.49529    0.70636   1.00
C3       0.46447    0.49037    0.79384   1.00
C3       0.53296    0.50747    0.70877   1.00
C3       0.53244    0.51053    0.79114   1.00
C2       0.49943    0.50105    0.64488   1.00
C2       0.50057    0.49895    0.85512   1.00
C3       0.46419    0.49500    0.66538   1.00
C3       0.46586    0.48996    0.83481   1.00
C3       0.53333    0.50781    0.66742   1.00
C3       0.53369    0.50832    0.83238   1.00
H1       0.43645    0.49117    0.71885   1.00
H1       0.43854    0.48275    0.78148   1.00
C5       0.56811    0.51357    0.72980   1.00
C5       0.56608    0.52238    0.77020   1.00
H1       0.43866    0.49031    0.65045   1.00
H1       0.44101    0.48274    0.84990   1.00
H1       0.55900    0.51344    0.65320   1.00
H1       0.55962    0.51317    0.84632   1.00
O3       0.60332    0.51312    0.71039   1.00
O3       0.59739    0.53948    0.78901   1.00
Si1      0.62830    0.47264    0.70753   1.00
Si1      0.59647    0.58638    0.79721   1.00
C6       0.66413    0.48957    0.67462   1.00
C6       0.64841    0.46365    0.75402   1.00
C6       0.60145    0.43351    0.68747   1.00
C6       0.55449    0.61283    0.78307   1.00
C6       0.60223    0.58942    0.84802   1.00
C6       0.63836    0.60649    0.77523   1.00
C6       0.64855    0.51224    0.63806   1.00
H2       0.67955    0.51131    0.69209   1.00
C6       0.69656    0.46149    0.65853   1.00
H2       0.64967    0.49295    0.76642   1.00
C6       0.62428    0.43867    0.78366   1.00
C6       0.69101    0.44739    0.75664   1.00
H2       0.58829    0.44692    0.66169   1.00
C6       0.62513    0.39746    0.67228   1.00
C6       0.56705    0.41499    0.71151   1.00
C6       0.54173    0.61106    0.73929   1.00
C6       0.51618    0.60921    0.80775   1.00
H2       0.56359    0.64297    0.78788   1.00
H2       0.57470    0.57827    0.85949   1.00
C6       0.63461    0.56279    0.86622   1.00
C6       0.60786    0.63095    0.86607   1.00
H2       0.66161    0.60078    0.79625   1.00
C6       0.65231    0.58685    0.73664   1.00
C6       0.63911    0.65154    0.76756   1.00
H2       0.63019    0.53688    0.64654   1.00
H2       0.63137    0.49320    0.61910   1.00
H2       0.67257    0.52425    0.62083   1.00
H2       0.72369    0.47765    0.65392   1.00
H2       0.70303    0.43748    0.67822   1.00
H2       0.68870    0.44883    0.63036   1.00
H2       0.63564    0.44221    0.81328   1.00
H2       0.59380    0.44750    0.78468   1.00
H2       0.62572    0.40767    0.77648   1.00
H2       0.71163    0.46626    0.74138   1.00
H2       0.70104    0.44596    0.78692   1.00
H2       0.69287    0.41798    0.74450   1.00
H2       0.64455    0.38612    0.69486   1.00
H2       0.60605    0.37363    0.66292   1.00
H2       0.64229    0.40488    0.64668   1.00
H2       0.57712    0.39188    0.73098   1.00
H2       0.55140    0.43589    0.72932   1.00
H2       0.54567    0.40192    0.69172   1.00
H2       0.52439    0.58515    0.73312   1.00
H2       0.52368    0.63632    0.73191   1.00
H2       0.56658    0.61133    0.71952   1.00
H2       0.49489    0.63123    0.79875   1.00
H2       0.50222    0.58092    0.80426   1.00
H2       0.52138    0.61401    0.83878   1.00
H2       0.63155    0.56165    0.89798   1.00
H2       0.63232    0.53279    0.85565   1.00
H2       0.66389    0.57343    0.85965   1.00
H2       0.58567    0.65136    0.85584   1.00
H2       0.60537    0.62969    0.89788   1.00
H2       0.63660    0.64286    0.85915   1.00
H2       0.63067    0.58927    0.71344   1.00
H2       0.67963    0.59952    0.72619   1.00
H2       0.65773    0.55605    0.74166   1.00
H2       0.66846    0.66119    0.75956   1.00
H2       0.61947    0.65965    0.74378   1.00
H2       0.63077    0.66806    0.79343   1.00
C4       0.49719    0.99883    0.77084   1.00
C4       0.49745    0.99951    0.72912   1.00
C3       0.46310    1.00471    0.79364   1.00
C3       0.46447    1.00963    0.70616   1.00
C3       0.53296    0.99253    0.79123   1.00
C3       0.53244    0.98947    0.70886   1.00
C2       0.49943    0.99895    0.85512   1.00
C2       0.50057    1.00105    0.64488   1.00
C3       0.46419    1.00500    0.83462   1.00
C3       0.46586    1.01004    0.66519   1.00
C3       0.53333    0.99219    0.83258   1.00
C3       0.53369    0.99168    0.66762   1.00
H1       0.43645    1.00883    0.78115   1.00
H1       0.43854    1.01725    0.71852   1.00
C5       0.56811    0.98643    0.77020   1.00
C5       0.56608    0.97762    0.72980   1.00
H1       0.43866    1.00969    0.84955   1.00
H1       0.44101    1.01726    0.65010   1.00
H1       0.55900    0.98656    0.84680   1.00
H1       0.55962    0.98683    0.65368   1.00
O3       0.60332    0.98688    0.78961   1.00
O3       0.59739    0.96052    0.71099   1.00
Si1      0.62830    1.02736    0.79247   1.00
Si1      0.59647    0.91362    0.70279   1.00
C6       0.66413    1.01043    0.82538   1.00
C6       0.64841    1.03635    0.74598   1.00
C6       0.60145    1.06649    0.81253   1.00
C6       0.55449    0.88717    0.71693   1.00
C6       0.60223    0.91058    0.65198   1.00
C6       0.63836    0.89351    0.72477   1.00
C6       0.64855    0.98776    0.86194   1.00
H2       0.67955    0.98869    0.80791   1.00
C6       0.69656    1.03851    0.84147   1.00
H2       0.64967    1.00705    0.73358   1.00
C6       0.62428    1.06133    0.71634   1.00
C6       0.69101    1.05261    0.74336   1.00
H2       0.58829    1.05308    0.83831   1.00
C6       0.62513    1.10254    0.82772   1.00
C6       0.56705    1.08501    0.78849   1.00
C6       0.54173    0.88894    0.76071   1.00
C6       0.51618    0.89079    0.69225   1.00
H2       0.56359    0.85703    0.71212   1.00
H2       0.57470    0.92173    0.64051   1.00
C6       0.63461    0.93721    0.63378   1.00
C6       0.60786    0.86905    0.63393   1.00
H2       0.66161    0.89922    0.70375   1.00
C6       0.65231    0.91315    0.76336   1.00
C6       0.63911    0.84846    0.73244   1.00
H2       0.63019    0.96312    0.85346   1.00
H2       0.63137    1.00680    0.88090   1.00
H2       0.67257    0.97575    0.87917   1.00
H2       0.72369    1.02235    0.84608   1.00
H2       0.70303    1.06252    0.82178   1.00
H2       0.68870    1.05117    0.86964   1.00
H2       0.63564    1.05779    0.68672   1.00
H2       0.59380    1.05250    0.71532   1.00
H2       0.62572    1.09233    0.72352   1.00
H2       0.71163    1.03374    0.75862   1.00
H2       0.70104    1.05404    0.71308   1.00
H2       0.69287    1.08202    0.75550   1.00
H2       0.64455    1.11388    0.80514   1.00
H2       0.60605    1.12637    0.83708   1.00
H2       0.64229    1.09512    0.85332   1.00
H2       0.57712    1.10812    0.76902   1.00
H2       0.55140    1.06411    0.77068   1.00
H2       0.54567    1.09808    0.80828   1.00
H2       0.52439    0.91485    0.76688   1.00
H2       0.52368    0.86368    0.76809   1.00
H2       0.56658    0.88867    0.78048   1.00
H2       0.49489    0.86877    0.70125   1.00
H2       0.50222    0.91908    0.69574   1.00
H2       0.52138    0.88599    0.66122   1.00
H2       0.63155    0.93835    0.60202   1.00
H2       0.63232    0.96721    0.64435   1.00
H2       0.66389    0.92657    0.64035   1.00
H2       0.58567    0.84864    0.64416   1.00
H2       0.60537    0.87031    0.60212   1.00
H2       0.63660    0.85714    0.64085   1.00
H2       0.63067    0.91073    0.78656   1.00
H2       0.67963    0.90048    0.77381   1.00
H2       0.65773    0.94395    0.75834   1.00
H2       0.66846    0.83881    0.74044   1.00
H2       0.61947    0.84035    0.75622   1.00
H2       0.63077    0.83194    0.70657   1.00
C4       0.49883    1.27084    0.49719   1.00
C4       0.49951    1.22912    0.49745   1.00
C3       0.50471    1.29364    0.46310   1.00
C3       0.50963    1.20616    0.46447   1.00
C3       0.49253    1.29123    0.53296   1.00
C3       0.48947    1.20886    0.53244   1.00
C2       0.49895    1.35512    0.49943   1.00
C2       0.50105    1.14488    0.50057   1.00
C3       0.50500    1.33462    0.46419   1.00
C3       0.51004    1.16519    0.46586   1.00
C3       0.49219    1.33258    0.53333   1.00
C3       0.49168    1.16762    0.53369   1.00
H1       0.50883    1.28115    0.43645   1.00
H1       0.51725    1.21852    0.43854   1.00
C5       0.48643    1.27020    0.56811   1.00
C5       0.47762    1.22980    0.56608   1.00
H1       0.50969    1.34955    0.43866   1.00
H1       0.51726    1.15010    0.44101   1.00
H1       0.48656    1.34680    0.55900   1.00
H1       0.48683    1.15368    0.55962   1.00
O3       0.48688    1.28961    0.60332   1.00
O3       0.46052    1.21099    0.59739   1.00
Si1      0.52736    1.29247    0.62830   1.00
Si1      0.41362    1.20279    0.59647   1.00
C6       0.51043    1.32538    0.66413   1.00
C6       0.53635    1.24598    0.64841   1.00
C6       0.56649    1.31253    0.60145   1.00
C6       0.38717    1.21693    0.55449   1.00
C6       0.41058    1.15198    0.60223   1.00
C6       0.39351    1.22477    0.63836   1.00
C6       0.48776    1.36194    0.64855   1.00
H2       0.48869    1.30791    0.67955   1.00
C6       0.53851    1.34147    0.69656   1.00
H2       0.50705    1.23358    0.64967   1.00
C6       0.56133    1.21634    0.62428   1.00
C6       0.55261    1.24336    0.69101   1.00
H2       0.55308    1.33831    0.58829   1.00
C6       0.60254    1.32772    0.62513   1.00
C6       0.58501    1.28849    0.56705   1.00
C6       0.38894    1.26071    0.54173   1.00
C6       0.39079    1.19225    0.51618   1.00
H2       0.35703    1.21212    0.56359   1.00
H2       0.42173    1.14051    0.57470   1.00
C6       0.43721    1.13378    0.63461   1.00
C6       0.36905    1.13393    0.60786   1.00
H2       0.39922    1.20375    0.66161   1.00
C6       0.41315    1.26336    0.65231   1.00
C6       0.34846    1.23244    0.63911   1.00
H2       0.46312    1.35346    0.63019   1.00
H2       0.50680    1.38090    0.63137   1.00
H2       0.47575    1.37917    0.67257   1.00
H2       0.52235    1.34608    0.72369   1.00
H2       0.56252    1.32178    0.70303   1.00
H2       0.55117    1.36964    0.68870   1.00
H2       0.55779    1.18672    0.63564   1.00
H2       0.55250    1.21532    0.59380   1.00
H2       0.59233    1.22352    0.62572   1.00
H2       0.53374    1.25862    0.71163   1.00
H2       0.55404    1.21308    0.70104   1.00
H2       0.58202    1.25550    0.69287   1.00
H2       0.61388    1.30514    0.64455   1.00
H2       0.62637    1.33708    0.60605   1.00
H2       0.59512    1.35332    0.64229   1.00
H2       0.60812    1.26902    0.57712   1.00
H2       0.56411    1.27068    0.55140   1.00
H2       0.59808    1.30828    0.54567   1.00
H2       0.41485    1.26688    0.52439   1.00
H2       0.36368    1.26809    0.52368   1.00
H2       0.38867    1.28048    0.56658   1.00
H2       0.36877    1.20125    0.49489   1.00
H2       0.41908    1.19574    0.50222   1.00
H2       0.38599    1.16122    0.52138   1.00
H2       0.43835    1.10202    0.63155   1.00
H2       0.46721    1.14435    0.63232   1.00
H2       0.42657    1.14035    0.66389   1.00
H2       0.34864    1.14416    0.58567   1.00
H2       0.37031    1.10212    0.60537   1.00
H2       0.35714    1.14085    0.63660   1.00
H2       0.41073    1.28656    0.63067   1.00
H2       0.40048    1.27381    0.67963   1.00
H2       0.44395    1.25834    0.65773   1.00
H2       0.33881    1.24044    0.66846   1.00
H2       0.34035    1.25622    0.61947   1.00
H2       0.33194    1.20657    0.63077   1.00
C4       0.22916    0.99719    0.50117   1.00
C4       0.27088    0.99745    0.50049   1.00
C3       0.20636    0.96310    0.49529   1.00
C3       0.29384    0.96447    0.49037   1.00
C3       0.20877    1.03296    0.50747   1.00
C3       0.29114    1.03244    0.51053   1.00
C2       0.14488    0.99943    0.50105   1.00
C2       0.35512    1.00057    0.49895   1.00
C3       0.16538    0.96419    0.49500   1.00
C3       0.33481    0.96586    0.48996   1.00
C3       0.16742    1.03333    0.50781   1.00
C3       0.33238    1.03369    0.50832   1.00
H1       0.21885    0.93645    0.49117   1.00
H1       0.28148    0.93854    0.48275   1.00
C5       0.22980    1.06811    0.51357   1.00
C5       0.27020    1.06608    0.52238   1.00
H1       0.15045    0.93866    0.49031   1.00
H1       0.34990    0.94101    0.48274   1.00
H1       0.15320    1.05900    0.51344   1.00
H1       0.34632    1.05962    0.51317   1.00
O3       0.21039    1.10332    0.51312   1.00
O3       0.28901    1.09739    0.53948   1.00
Si1      0.20753    1.12830    0.47264   1.00
Si1      0.29721    1.09647    0.58638   1.00
C6       0.17462    1.16413    0.48957   1.00
C6       0.25402    1.14841    0.46365   1.00
C6       0.18747    1.10145    0.43351   1.00
C6       0.28307    1.05449    0.61283   1.00
C6       0.34802    1.10223    0.58942   1.00
C6       0.27523    1.13836    0.60649   1.00
C6       0.13806    1.14855    0.51224   1.00
H2       0.19209    1.17955    0.51131   1.00
C6       0.15853    1.19656    0.46149   1.00
H2       0.26642    1.14967    0.49295   1.00
C6       0.28366    1.12428    0.43867   1.00
C6       0.25664    1.19101    0.44739   1.00
H2       0.16169    1.08829    0.44692   1.00
C6       0.17228    1.12513    0.39746   1.00
C6       0.21151    1.06705    0.41499   1.00
C6       0.23929    1.04173    0.61106   1.00
C6       0.30775    1.01618    0.60921   1.00
H2       0.28788    1.06359    0.64297   1.00
H2       0.35949    1.07470    0.57827   1.00
C6       0.36622    1.13461    0.56279   1.00
C6       0.36607    1.10786    0.63095   1.00
H2       0.29625    1.16161    0.60078   1.00
C6       0.23664    1.15231    0.58685   1.00
C6       0.26756    1.13911    0.65154   1.00
H2       0.14654    1.13019    0.53688   1.00
H2       0.11910    1.13137    0.49320   1.00
H2       0.12083    1.17257    0.52425   1.00
H2       0.15392    1.22369    0.47765   1.00
H2       0.17822    1.20303    0.43748   1.00
H2       0.13036    1.18870    0.44883   1.00
H2       0.31328    1.13564    0.44221   1.00
H2       0.28468    1.09380    0.44750   1.00
H2       0.27648    1.12572    0.40767   1.00
H2       0.24138    1.21163    0.46626   1.00
H2       0.28692    1.20104    0.44596   1.00
H2       0.24450    1.19287    0.41798   1.00
H2       0.19486    1.14455    0.38612   1.00
H2       0.16292    1.10605    0.37363   1.00
H2       0.14668    1.14229    0.40488   1.00
H2       0.23098    1.07712    0.39188   1.00
H2       0.22932    1.05140    0.43589   1.00
H2       0.19172    1.04567    0.40192   1.00
H2       0.23312    1.02439    0.58515   1.00
H2       0.23191    1.02368    0.63632   1.00
H2       0.21952    1.06658    0.61133   1.00
H2       0.29875    0.99489    0.63123   1.00
H2       0.30426    1.00222    0.58092   1.00
H2       0.33878    1.02138    0.61401   1.00
H2       0.39798    1.13155    0.56165   1.00
H2       0.35565    1.13232    0.53279   1.00
H2       0.35965    1.16389    0.57343   1.00
H2       0.35584    1.08567    0.65136   1.00
H2       0.39788    1.10537    0.62969   1.00
H2       0.35915    1.13660    0.64286   1.00
H2       0.21344    1.13067    0.58927   1.00
H2       0.22619    1.17963    0.59952   1.00
H2       0.24166    1.15773    0.55605   1.00
H2       0.25956    1.16846    0.66119   1.00
H2       0.24378    1.11947    0.65965   1.00
H2       0.29343    1.13077    0.66806   1.00
C4       0.77084    0.99719    0.49883   1.00
C4       0.72912    0.99745    0.49951   1.00
C3       0.79364    0.96310    0.50471   1.00
C3       0.70616    0.96447    0.50963   1.00
C3       0.79123    1.03296    0.49253   1.00
C3       0.70886    1.03244    0.48947   1.00
C2       0.85512    0.99943    0.49895   1.00
C2       0.64488    1.00057    0.50105   1.00
C3       0.83462    0.96419    0.50500   1.00
C3       0.66519    0.96586    0.51004   1.00
C3       0.83258    1.03333    0.49219   1.00
C3       0.66762    1.03369    0.49168   1.00
H1       0.78115    0.93645    0.50883   1.00
H1       0.71852    0.93854    0.51725   1.00
C5       0.77020    1.06811    0.48643   1.00
C5       0.72980    1.06608    0.47762   1.00
H1       0.84955    0.93866    0.50969   1.00
H1       0.65010    0.94101    0.51726   1.00
H1       0.84680    1.05900    0.48656   1.00
H1       0.65368    1.05962    0.48683   1.00
O3       0.78961    1.10332    0.48688   1.00
O3       0.71099    1.09739    0.46052   1.00
Si1      0.79247    1.12830    0.52736   1.00
Si1      0.70279    1.09647    0.41362   1.00
C6       0.82538    1.16413    0.51043   1.00
C6       0.74598    1.14841    0.53635   1.00
C6       0.81253    1.10145    0.56649   1.00
C6       0.71693    1.05449    0.38717   1.00
C6       0.65198    1.10223    0.41058   1.00
C6       0.72477    1.13836    0.39351   1.00
C6       0.86194    1.14855    0.48776   1.00
H2       0.80791    1.17955    0.48869   1.00
C6       0.84147    1.19656    0.53851   1.00
H2       0.73358    1.14967    0.50705   1.00
C6       0.71634    1.12428    0.56133   1.00
C6       0.74336    1.19101    0.55261   1.00
H2       0.83831    1.08829    0.55308   1.00
C6       0.82772    1.12513    0.60254   1.00
C6       0.78849    1.06705    0.58501   1.00
C6       0.76071    1.04173    0.38894   1.00
C6       0.69225    1.01618    0.39079   1.00
H2       0.71212    1.06359    0.35703   1.00
H2       0.64051    1.07470    0.42173   1.00
C6       0.63378    1.13461    0.43721   1.00
C6       0.63393    1.10786    0.36905   1.00
H2       0.70375    1.16161    0.39922   1.00
C6       0.76336    1.15231    0.41315   1.00
C6       0.73244    1.13911    0.34846   1.00
H2       0.85346    1.13019    0.46312   1.00
H2       0.88090    1.13137    0.50680   1.00
H2       0.87917    1.17257    0.47575   1.00
H2       0.84608    1.22369    0.52235   1.00
H2       0.82178    1.20303    0.56252   1.00
H2       0.86964    1.18870    0.55117   1.00
H2       0.68672    1.13564    0.55779   1.00
H2       0.71532    1.09380    0.55250   1.00
H2       0.72352    1.12572    0.59233   1.00
H2       0.75862    1.21163    0.53374   1.00
H2       0.71308    1.20104    0.55404   1.00
H2       0.75550    1.19287    0.58202   1.00
H2       0.80514    1.14455    0.61388   1.00
H2       0.83708    1.10605    0.62637   1.00
H2       0.85332    1.14229    0.59512   1.00
H2       0.76902    1.07712    0.60812   1.00
H2       0.77068    1.05140    0.56411   1.00
H2       0.80828    1.04567    0.59808   1.00
H2       0.76688    1.02439    0.41485   1.00
H2       0.76809    1.02368    0.36368   1.00
H2       0.78048    1.06658    0.38867   1.00
H2       0.70125    0.99489    0.36877   1.00
H2       0.69574    1.00222    0.41908   1.00
H2       0.66122    1.02138    0.38599   1.00
H2       0.60202    1.13155    0.43835   1.00
H2       0.64435    1.13232    0.46721   1.00
H2       0.64035    1.16389    0.42657   1.00
H2       0.64416    1.08567    0.34864   1.00
H2       0.60212    1.10537    0.37031   1.00
H2       0.64085    1.13660    0.35714   1.00
H2       0.78656    1.13067    0.41073   1.00
H2       0.77381    1.17963    0.40048   1.00
H2       0.75834    1.15773    0.44395   1.00
H2       0.74044    1.16846    0.33881   1.00
H2       0.75622    1.11947    0.34035   1.00
H2       0.70657    1.13077    0.33194   1.00
C4       0.50117    0.72916    0.49719   1.00
C4       0.50049    0.77088    0.49745   1.00
C3       0.49529    0.70636    0.46310   1.00
C3       0.49037    0.79384    0.46447   1.00
C3       0.50747    0.70877    0.53296   1.00
C3       0.51053    0.79114    0.53244   1.00
C2       0.50105    0.64488    0.49943   1.00
C2       0.49895    0.85512    0.50057   1.00
C3       0.49500    0.66538    0.46419   1.00
C3       0.48996    0.83481    0.46586   1.00
C3       0.50781    0.66742    0.53333   1.00
C3       0.50832    0.83238    0.53369   1.00
H1       0.49117    0.71885    0.43645   1.00
H1       0.48275    0.78148    0.43854   1.00
C5       0.51357    0.72980    0.56811   1.00
C5       0.52238    0.77020    0.56608   1.00
H1       0.49031    0.65045    0.43866   1.00
H1       0.48274    0.84990    0.44101   1.00
H1       0.51344    0.65320    0.55900   1.00
H1       0.51317    0.84632    0.55962   1.00
O3       0.51312    0.71039    0.60332   1.00
O3       0.53948    0.78901    0.59739   1.00
Si1      0.47264    0.70753    0.62830   1.00
Si1      0.58638    0.79721    0.59647   1.00
C6       0.48957    0.67462    0.66413   1.00
C6       0.46365    0.75402    0.64841   1.00
C6       0.43351    0.68747    0.60145   1.00
C6       0.61283    0.78307    0.55449   1.00
C6       0.58942    0.84802    0.60223   1.00
C6       0.60649    0.77523    0.63836   1.00
C6       0.51224    0.63806    0.64855   1.00
H2       0.51131    0.69209    0.67955   1.00
C6       0.46149    0.65853    0.69656   1.00
H2       0.49295    0.76642    0.64967   1.00
C6       0.43867    0.78366    0.62428   1.00
C6       0.44739    0.75664    0.69101   1.00
H2       0.44692    0.66169    0.58829   1.00
C6       0.39746    0.67228    0.62513   1.00
C6       0.41499    0.71151    0.56705   1.00
C6       0.61106    0.73929    0.54173   1.00
C6       0.60921    0.80775    0.51618   1.00
H2       0.64297    0.78788    0.56359   1.00
H2       0.57827    0.85949    0.57470   1.00
C6       0.56279    0.86622    0.63461   1.00
C6       0.63095    0.86607    0.60786   1.00
H2       0.60078    0.79625    0.66161   1.00
C6       0.58685    0.73664    0.65231   1.00
C6       0.65154    0.76756    0.63911   1.00
H2       0.53688    0.64654    0.63019   1.00
H2       0.49320    0.61910    0.63137   1.00
H2       0.52425    0.62083    0.67257   1.00
H2       0.47765    0.65392    0.72369   1.00
H2       0.43748    0.67822    0.70303   1.00
H2       0.44883    0.63036    0.68870   1.00
H2       0.44221    0.81328    0.63564   1.00
H2       0.44750    0.78468    0.59380   1.00
H2       0.40767    0.77648    0.62572   1.00
H2       0.46626    0.74138    0.71163   1.00
H2       0.44596    0.78692    0.70104   1.00
H2       0.41798    0.74450    0.69287   1.00
H2       0.38612    0.69486    0.64455   1.00
H2       0.37363    0.66292    0.60605   1.00
H2       0.40488    0.64668    0.64229   1.00
H2       0.39188    0.73098    0.57712   1.00
H2       0.43589    0.72932    0.55140   1.00
H2       0.40192    0.69172    0.54567   1.00
H2       0.58515    0.73312    0.52439   1.00
H2       0.63632    0.73191    0.52368   1.00
H2       0.61133    0.71952    0.56658   1.00
H2       0.63123    0.79875    0.49489   1.00
H2       0.58092    0.80426    0.50222   1.00
H2       0.61401    0.83878    0.52138   1.00
H2       0.56165    0.89798    0.63155   1.00
H2       0.53279    0.85565    0.63232   1.00
H2       0.57343    0.85965    0.66389   1.00
H2       0.65136    0.85584    0.58567   1.00
H2       0.62969    0.89788    0.60537   1.00
H2       0.64286    0.85915    0.63660   1.00
H2       0.58927    0.71344    0.63067   1.00
H2       0.59952    0.72619    0.67963   1.00
H2       0.55605    0.74166    0.65773   1.00
H2       0.66119    0.75956    0.66846   1.00
H2       0.65965    0.74378    0.61947   1.00
H2       0.66806    0.79343    0.63077   1.00
C4       0.49719    1.00117    0.22916   1.00
C4       0.49745    1.00049    0.27088   1.00
C3       0.46310    0.99529    0.20636   1.00
C3       0.46447    0.99037    0.29384   1.00
C3       0.53296    1.00747    0.20877   1.00
C3       0.53244    1.01053    0.29114   1.00
C2       0.49943    1.00105    0.14488   1.00
C2       0.50057    0.99895    0.35512   1.00
C3       0.46419    0.99500    0.16538   1.00
C3       0.46586    0.98996    0.33481   1.00
C3       0.53333    1.00781    0.16742   1.00
C3       0.53369    1.00832    0.33238   1.00
H1       0.43645    0.99117    0.21885   1.00
H1       0.43854    0.98275    0.28148   1.00
C5       0.56811    1.01357    0.22980   1.00
C5       0.56608    1.02238    0.27020   1.00
H1       0.43866    0.99031    0.15045   1.00
H1       0.44101    0.98274    0.34990   1.00
H1       0.55900    1.01344    0.15320   1.00
H1       0.55962    1.01317    0.34632   1.00
O3       0.60332    1.01312    0.21039   1.00
O3       0.59739    1.03948    0.28901   1.00
Si1      0.62830    0.97264    0.20753   1.00
Si1      0.59647    1.08638    0.29721   1.00
C6       0.66413    0.98957    0.17462   1.00
C6       0.64841    0.96365    0.25402   1.00
C6       0.60145    0.93351    0.18747   1.00
C6       0.55449    1.11283    0.28307   1.00
C6       0.60223    1.08942    0.34802   1.00
C6       0.63836    1.10649    0.27523   1.00
C6       0.64855    1.01224    0.13806   1.00
H2       0.67955    1.01131    0.19209   1.00
C6       0.69656    0.96149    0.15853   1.00
H2       0.64967    0.99295    0.26642   1.00
C6       0.62428    0.93867    0.28366   1.00
C6       0.69101    0.94739    0.25664   1.00
H2       0.58829    0.94692    0.16169   1.00
C6       0.62513    0.89746    0.17228   1.00
C6       0.56705    0.91499    0.21151   1.00
C6       0.54173    1.11106    0.23929   1.00
C6       0.51618    1.10921    0.30775   1.00
H2       0.56359    1.14297    0.28788   1.00
H2       0.57470    1.07827    0.35949   1.00
C6       0.63461    1.06279    0.36622   1.00
C6       0.60786    1.13095    0.36607   1.00
H2       0.66161    1.10078    0.29625   1.00
C6       0.65231    1.08685    0.23664   1.00
C6       0.63911    1.15154    0.26756   1.00
H2       0.63019    1.03688    0.14654   1.00
H2       0.63137    0.99320    0.11910   1.00
H2       0.67257    1.02425    0.12083   1.00
H2       0.72369    0.97765    0.15392   1.00
H2       0.70303    0.93748    0.17822   1.00
H2       0.68870    0.94883    0.13036   1.00
H2       0.63564    0.94221    0.31328   1.00
H2       0.59380    0.94750    0.28468   1.00
H2       0.62572    0.90767    0.27648   1.00
H2       0.71163    0.96626    0.24138   1.00
H2       0.70104    0.94596    0.28692   1.00
H2       0.69287    0.91798    0.24450   1.00
H2       0.64455    0.88612    0.19486   1.00
H2       0.60605    0.87363    0.16292   1.00
H2       0.64229    0.90488    0.14668   1.00
H2       0.57712    0.89188    0.23098   1.00
H2       0.55140    0.93589    0.22932   1.00
H2       0.54567    0.90192    0.19172   1.00
H2       0.52439    1.08515    0.23312   1.00
H2       0.52368    1.13632    0.23191   1.00
H2       0.56658    1.11133    0.21952   1.00
H2       0.49489    1.13123    0.29875   1.00
H2       0.50222    1.08092    0.30426   1.00
H2       0.52138    1.11401    0.33878   1.00
H2       0.63155    1.06165    0.39798   1.00
H2       0.63232    1.03279    0.35565   1.00
H2       0.66389    1.07343    0.35965   1.00
H2       0.58567    1.15136    0.35584   1.00
H2       0.60537    1.12969    0.39788   1.00
H2       0.63660    1.14286    0.35915   1.00
H2       0.63067    1.08927    0.21344   1.00
H2       0.67963    1.09952    0.22619   1.00
H2       0.65773    1.05605    0.24166   1.00
H2       0.66846    1.16119    0.25956   1.00
H2       0.61947    1.15965    0.24378   1.00
H2       0.63077    1.16806    0.29343   1.00
C4       0.99719    0.49883    0.77084   1.00
C4       0.99745    0.49951    0.72912   1.00
C3       0.96310    0.50471    0.79364   1.00
C3       0.96447    0.50963    0.70616   1.00
C3       1.03296    0.49253    0.79123   1.00
C3       1.03244    0.48947    0.70886   1.00
C2       0.99943    0.49895    0.85512   1.00
C2       1.00057    0.50105    0.64488   1.00
C3       0.96419    0.50500    0.83462   1.00
C3       0.96586    0.51004    0.66519   1.00
C3       1.03333    0.49219    0.83258   1.00
C3       1.03369    0.49168    0.66762   1.00
H1       0.93645    0.50883    0.78115   1.00
H1       0.93854    0.51725    0.71852   1.00
C5       1.06811    0.48643    0.77020   1.00
C5       1.06608    0.47762    0.72980   1.00
H1       0.93866    0.50969    0.84955   1.00
H1       0.94101    0.51726    0.65010   1.00
H1       1.05900    0.48656    0.84680   1.00
H1       1.05962    0.48683    0.65368   1.00
O3       1.10332    0.48688    0.78961   1.00
O3       1.09739    0.46052    0.71099   1.00
Si1      1.12830    0.52736    0.79247   1.00
Si1      1.09647    0.41362    0.70279   1.00
C6       1.16413    0.51043    0.82538   1.00
C6       1.14841    0.53635    0.74598   1.00
C6       1.10145    0.56649    0.81253   1.00
C6       1.05449    0.38717    0.71693   1.00
C6       1.10223    0.41058    0.65198   1.00
C6       1.13836    0.39351    0.72477   1.00
C6       1.14855    0.48776    0.86194   1.00
H2       1.17955    0.48869    0.80791   1.00
C6       1.19656    0.53851    0.84147   1.00
H2       1.14967    0.50705    0.73358   1.00
C6       1.12428    0.56133    0.71634   1.00
C6       1.19101    0.55261    0.74336   1.00
H2       1.08829    0.55308    0.83831   1.00
C6       1.12513    0.60254    0.82772   1.00
C6       1.06705    0.58501    0.78849   1.00
C6       1.04173    0.38894    0.76071   1.00
C6       1.01618    0.39079    0.69225   1.00
H2       1.06359    0.35703    0.71212   1.00
H2       1.07470    0.42173    0.64051   1.00
C6       1.13461    0.43721    0.63378   1.00
C6       1.10786    0.36905    0.63393   1.00
H2       1.16161    0.39922    0.70375   1.00
C6       1.15231    0.41315    0.76336   1.00
C6       1.13911    0.34846    0.73244   1.00
H2       1.13019    0.46312    0.85346   1.00
H2       1.13137    0.50680    0.88090   1.00
H2       1.17257    0.47575    0.87917   1.00
H2       1.22369    0.52235    0.84608   1.00
H2       1.20303    0.56252    0.82178   1.00
H2       1.18870    0.55117    0.86964   1.00
H2       1.13564    0.55779    0.68672   1.00
H2       1.09380    0.55250    0.71532   1.00
H2       1.12572    0.59233    0.72352   1.00
H2       1.21163    0.53374    0.75862   1.00
H2       1.20104    0.55404    0.71308   1.00
H2       1.19287    0.58202    0.75550   1.00
H2       1.14455    0.61388    0.80514   1.00
H2       1.10605    0.62637    0.83708   1.00
H2       1.14229    0.59512    0.85332   1.00
H2       1.07712    0.60812    0.76902   1.00
H2       1.05140    0.56411    0.77068   1.00
H2       1.04567    0.59808    0.80828   1.00
H2       1.02439    0.41485    0.76688   1.00
H2       1.02368    0.36368    0.76809   1.00
H2       1.06658    0.38867    0.78048   1.00
H2       0.99489    0.36877    0.70125   1.00
H2       1.00222    0.41908    0.69574   1.00
H2       1.02138    0.38599    0.66122   1.00
H2       1.13155    0.43835    0.60202   1.00
H2       1.13232    0.46721    0.64435   1.00
H2       1.16389    0.42657    0.64035   1.00
H2       1.08567    0.34864    0.64416   1.00
H2       1.10537    0.37031    0.60212   1.00
H2       1.13660    0.35714    0.64085   1.00
H2       1.13067    0.41073    0.78656   1.00
H2       1.17963    0.40048    0.77381   1.00
H2       1.15773    0.44395    0.75834   1.00
H2       1.16846    0.33881    0.74044   1.00
H2       1.11947    0.34035    0.75622   1.00
H2       1.13077    0.33194    0.70657   1.00
C4       0.99883    0.77084    0.49719   1.00
C4       0.99951    0.72912    0.49745   1.00
C3       1.00471    0.79364    0.46310   1.00
C3       1.00963    0.70616    0.46447   1.00
C3       0.99253    0.79123    0.53296   1.00
C3       0.98947    0.70886    0.53244   1.00
C2       0.99895    0.85512    0.49943   1.00
C2       1.00105    0.64488    0.50057   1.00
C3       1.00500    0.83462    0.46419   1.00
C3       1.01004    0.66519    0.46586   1.00
C3       0.99219    0.83258    0.53333   1.00
C3       0.99168    0.66762    0.53369   1.00
H1       1.00883    0.78115    0.43645   1.00
H1       1.01725    0.71852    0.43854   1.00
C5       0.98643    0.77020    0.56811   1.00
C5       0.97762    0.72980    0.56608   1.00
H1       1.00969    0.84955    0.43866   1.00
H1       1.01726    0.65010    0.44101   1.00
H1       0.98656    0.84680    0.55900   1.00
H1       0.98683    0.65368    0.55962   1.00
O3       0.98688    0.78961    0.60332   1.00
O3       0.96052    0.71099    0.59739   1.00
Si1      1.02736    0.79247    0.62830   1.00
Si1      0.91362    0.70279    0.59647   1.00
C6       1.01043    0.82538    0.66413   1.00
C6       1.03635    0.74598    0.64841   1.00
C6       1.06649    0.81253    0.60145   1.00
C6       0.88717    0.71693    0.55449   1.00
C6       0.91058    0.65198    0.60223   1.00
C6       0.89351    0.72477    0.63836   1.00
C6       0.98776    0.86194    0.64855   1.00
H2       0.98869    0.80791    0.67955   1.00
C6       1.03851    0.84147    0.69656   1.00
H2       1.00705    0.73358    0.64967   1.00
C6       1.06133    0.71634    0.62428   1.00
C6       1.05261    0.74336    0.69101   1.00
H2       1.05308    0.83831    0.58829   1.00
C6       1.10254    0.82772    0.62513   1.00
C6       1.08501    0.78849    0.56705   1.00
C6       0.88894    0.76071    0.54173   1.00
C6       0.89079    0.69225    0.51618   1.00
H2       0.85703    0.71212    0.56359   1.00
H2       0.92173    0.64051    0.57470   1.00
C6       0.93721    0.63378    0.63461   1.00
C6       0.86905    0.63393    0.60786   1.00
H2       0.89922    0.70375    0.66161   1.00
C6       0.91315    0.76336    0.65231   1.00
C6       0.84846    0.73244    0.63911   1.00
H2       0.96312    0.85346    0.63019   1.00
H2       1.00680    0.88090    0.63137   1.00
H2       0.97575    0.87917    0.67257   1.00
H2       1.02235    0.84608    0.72369   1.00
H2       1.06252    0.82178    0.70303   1.00
H2       1.05117    0.86964    0.68870   1.00
H2       1.05779    0.68672    0.63564   1.00
H2       1.05250    0.71532    0.59380   1.00
H2       1.09233    0.72352    0.62572   1.00
H2       1.03374    0.75862    0.71163   1.00
H2       1.05404    0.71308    0.70104   1.00
H2       1.08202    0.75550    0.69287   1.00
H2       1.11388    0.80514    0.64455   1.00
H2       1.12637    0.83708    0.60605   1.00
H2       1.09512    0.85332    0.64229   1.00
H2       1.10812    0.76902    0.57712   1.00
H2       1.06411    0.77068    0.55140   1.00
H2       1.09808    0.80828    0.54567   1.00
H2       0.91485    0.76688    0.52439   1.00
H2       0.86368    0.76809    0.52368   1.00
H2       0.88867    0.78048    0.56658   1.00
H2       0.86877    0.70125    0.49489   1.00
H2       0.91908    0.69574    0.50222   1.00
H2       0.88599    0.66122    0.52138   1.00
H2       0.93835    0.60202    0.63155   1.00
H2       0.96721    0.64435    0.63232   1.00
H2       0.92657    0.64035    0.66389   1.00
H2       0.84864    0.64416    0.58567   1.00
H2       0.87031    0.60212    0.60537   1.00
H2       0.85714    0.64085    0.63660   1.00
H2       0.91073    0.78656    0.63067   1.00
H2       0.90048    0.77381    0.67963   1.00
H2       0.94395    0.75834    0.65773   1.00
H2       0.83881    0.74044    0.66846   1.00
H2       0.84035    0.75622    0.61947   1.00
H2       0.83194    0.70657    0.63077   1.00
C4       0.72916    0.49719    0.50117   1.00
C4       0.77088    0.49745    0.50049   1.00
C3       0.70636    0.46310    0.49529   1.00
C3       0.79384    0.46447    0.49037   1.00
C3       0.70877    0.53296    0.50747   1.00
C3       0.79114    0.53244    0.51053   1.00
C2       0.64488    0.49943    0.50105   1.00
C2       0.85512    0.50057    0.49895   1.00
C3       0.66538    0.46419    0.49500   1.00
C3       0.83481    0.46586    0.48996   1.00
C3       0.66742    0.53333    0.50781   1.00
C3       0.83238    0.53369    0.50832   1.00
H1       0.71885    0.43645    0.49117   1.00
H1       0.78148    0.43854    0.48275   1.00
C5       0.72980    0.56811    0.51357   1.00
C5       0.77020    0.56608    0.52238   1.00
H1       0.65045    0.43866    0.49031   1.00
H1       0.84990    0.44101    0.48274   1.00
H1       0.65320    0.55900    0.51344   1.00
H1       0.84632    0.55962    0.51317   1.00
O3       0.71039    0.60332    0.51312   1.00
O3       0.78901    0.59739    0.53948   1.00
Si1      0.70753    0.62830    0.47264   1.00
Si1      0.79721    0.59647    0.58638   1.00
C6       0.67462    0.66413    0.48957   1.00
C6       0.75402    0.64841    0.46365   1.00
C6       0.68747    0.60145    0.43351   1.00
C6       0.78307    0.55449    0.61283   1.00
C6       0.84802    0.60223    0.58942   1.00
C6       0.77523    0.63836    0.60649   1.00
C6       0.63806    0.64855    0.51224   1.00
H2       0.69209    0.67955    0.51131   1.00
C6       0.65853    0.69656    0.46149   1.00
H2       0.76642    0.64967    0.49295   1.00
C6       0.78366    0.62428    0.43867   1.00
C6       0.75664    0.69101    0.44739   1.00
H2       0.66169    0.58829    0.44692   1.00
C6       0.67228    0.62513    0.39746   1.00
C6       0.71151    0.56705    0.41499   1.00
C6       0.73929    0.54173    0.61106   1.00
C6       0.80775    0.51618    0.60921   1.00
H2       0.78788    0.56359    0.64297   1.00
H2       0.85949    0.57470    0.57827   1.00
C6       0.86622    0.63461    0.56279   1.00
C6       0.86607    0.60786    0.63095   1.00
H2       0.79625    0.66161    0.60078   1.00
C6       0.73664    0.65231    0.58685   1.00
C6       0.76756    0.63911    0.65154   1.00
H2       0.64654    0.63019    0.53688   1.00
H2       0.61910    0.63137    0.49320   1.00
H2       0.62083    0.67257    0.52425   1.00
H2       0.65392    0.72369    0.47765   1.00
H2       0.67822    0.70303    0.43748   1.00
H2       0.63036    0.68870    0.44883   1.00
H2       0.81328    0.63564    0.44221   1.00
H2       0.78468    0.59380    0.44750   1.00
H2       0.77648    0.62572    0.40767   1.00
H2       0.74138    0.71163    0.46626   1.00
H2       0.78692    0.70104    0.44596   1.00
H2       0.74450    0.69287    0.41798   1.00
H2       0.69486    0.64455    0.38612   1.00
H2       0.66292    0.60605    0.37363   1.00
H2       0.64668    0.64229    0.40488   1.00
H2       0.73098    0.57712    0.39188   1.00
H2       0.72932    0.55140    0.43589   1.00
H2       0.69172    0.54567    0.40192   1.00
H2       0.73312    0.52439    0.58515   1.00
H2       0.73191    0.52368    0.63632   1.00
H2       0.71952    0.56658    0.61133   1.00
H2       0.79875    0.49489    0.63123   1.00
H2       0.80426    0.50222    0.58092   1.00
H2       0.83878    0.52138    0.61401   1.00
H2       0.89798    0.63155    0.56165   1.00
H2       0.85565    0.63232    0.53279   1.00
H2       0.85965    0.66389    0.57343   1.00
H2       0.85584    0.58567    0.65136   1.00
H2       0.89788    0.60537    0.62969   1.00
H2       0.85915    0.63660    0.64286   1.00
H2       0.71344    0.63067    0.58927   1.00
H2       0.72619    0.67963    0.59952   1.00
H2       0.74166    0.65773    0.55605   1.00
H2       0.75956    0.66846    0.66119   1.00
H2       0.74378    0.61947    0.65965   1.00
H2       0.79343    0.63077    0.66806   1.00
C4       1.27084    0.49719    0.49883   1.00
C4       1.22912    0.49745    0.49951   1.00
C3       1.29364    0.46310    0.50471   1.00
C3       1.20616    0.46447    0.50963   1.00
C3       1.29123    0.53296    0.49253   1.00
C3       1.20886    0.53244    0.48947   1.00
C2       1.35512    0.49943    0.49895   1.00
C2       1.14488    0.50057    0.50105   1.00
C3       1.33462    0.46419    0.50500   1.00
C3       1.16519    0.46586    0.51004   1.00
C3       1.33258    0.53333    0.49219   1.00
C3       1.16762    0.53369    0.49168   1.00
H1       1.28115    0.43645    0.50883   1.00
H1       1.21852    0.43854    0.51725   1.00
C5       1.27020    0.56811    0.48643   1.00
C5       1.22980    0.56608    0.47762   1.00
H1       1.34955    0.43866    0.50969   1.00
H1       1.15010    0.44101    0.51726   1.00
H1       1.34680    0.55900    0.48656   1.00
H1       1.15368    0.55962    0.48683   1.00
O3       1.28961    0.60332    0.48688   1.00
O3       1.21099    0.59739    0.46052   1.00
Si1      1.29247    0.62830    0.52736   1.00
Si1      1.20279    0.59647    0.41362   1.00
C6       1.32538    0.66413    0.51043   1.00
C6       1.24598    0.64841    0.53635   1.00
C6       1.31253    0.60145    0.56649   1.00
C6       1.21693    0.55449    0.38717   1.00
C6       1.15198    0.60223    0.41058   1.00
C6       1.22477    0.63836    0.39351   1.00
C6       1.36194    0.64855    0.48776   1.00
H2       1.30791    0.67955    0.48869   1.00
C6       1.34147    0.69656    0.53851   1.00
H2       1.23358    0.64967    0.50705   1.00
C6       1.21634    0.62428    0.56133   1.00
C6       1.24336    0.69101    0.55261   1.00
H2       1.33831    0.58829    0.55308   1.00
C6       1.32772    0.62513    0.60254   1.00
C6       1.28849    0.56705    0.58501   1.00
C6       1.26071    0.54173    0.38894   1.00
C6       1.19225    0.51618    0.39079   1.00
H2       1.21212    0.56359    0.35703   1.00
H2       1.14051    0.57470    0.42173   1.00
C6       1.13378    0.63461    0.43721   1.00
C6       1.13393    0.60786    0.36905   1.00
H2       1.20375    0.66161    0.39922   1.00
C6       1.26336    0.65231    0.41315   1.00
C6       1.23244    0.63911    0.34846   1.00
H2       1.35346    0.63019    0.46312   1.00
H2       1.38090    0.63137    0.50680   1.00
H2       1.37917    0.67257    0.47575   1.00
H2       1.34608    0.72369    0.52235   1.00
H2       1.32178    0.70303    0.56252   1.00
H2       1.36964    0.68870    0.55117   1.00
H2       1.18672    0.63564    0.55779   1.00
H2       1.21532    0.59380    0.55250   1.00
H2       1.22352    0.62572    0.59233   1.00
H2       1.25862    0.71163    0.53374   1.00
H2       1.21308    0.70104    0.55404   1.00
H2       1.25550    0.69287    0.58202   1.00
H2       1.30514    0.64455    0.61388   1.00
H2       1.33708    0.60605    0.62637   1.00
H2       1.35332    0.64229    0.59512   1.00
H2       1.26902    0.57712    0.60812   1.00
H2       1.27068    0.55140    0.56411   1.00
H2       1.30828    0.54567    0.59808   1.00
H2       1.26688    0.52439    0.41485   1.00
H2       1.26809    0.52368    0.36368   1.00
H2       1.28048    0.56658    0.38867   1.00
H2       1.20125    0.49489    0.36877   1.00
H2       1.19574    0.50222    0.41908   1.00
H2       1.16122    0.52138    0.38599   1.00
H2       1.10202    0.63155    0.43835   1.00
H2       1.14435    0.63232    0.46721   1.00
H2       1.14035    0.66389    0.42657   1.00
H2       1.14416    0.58567    0.34864   1.00
H2       1.10212    0.60537    0.37031   1.00
H2       1.14085    0.63660    0.35714   1.00
H2       1.28656    0.63067    0.41073   1.00
H2       1.27381    0.67963    0.40048   1.00
H2       1.25834    0.65773    0.44395   1.00
H2       1.24044    0.66846    0.33881   1.00
H2       1.25622    0.61947    0.34035   1.00
H2       1.20657    0.63077    0.33194   1.00
C4       1.00117    0.22916    0.49719   1.00
C4       1.00049    0.27088    0.49745   1.00
C3       0.99529    0.20636    0.46310   1.00
C3       0.99037    0.29384    0.46447   1.00
C3       1.00747    0.20877    0.53296   1.00
C3       1.01053    0.29114    0.53244   1.00
C2       1.00105    0.14488    0.49943   1.00
C2       0.99895    0.35512    0.50057   1.00
C3       0.99500    0.16538    0.46419   1.00
C3       0.98996    0.33481    0.46586   1.00
C3       1.00781    0.16742    0.53333   1.00
C3       1.00832    0.33238    0.53369   1.00
H1       0.99117    0.21885    0.43645   1.00
H1       0.98275    0.28148    0.43854   1.00
C5       1.01357    0.22980    0.56811   1.00
C5       1.02238    0.27020    0.56608   1.00
H1       0.99031    0.15045    0.43866   1.00
H1       0.98274    0.34990    0.44101   1.00
H1       1.01344    0.15320    0.55900   1.00
H1       1.01317    0.34632    0.55962   1.00
O3       1.01312    0.21039    0.60332   1.00
O3       1.03948    0.28901    0.59739   1.00
Si1      0.97264    0.20753    0.62830   1.00
Si1      1.08638    0.29721    0.59647   1.00
C6       0.98957    0.17462    0.66413   1.00
C6       0.96365    0.25402    0.64841   1.00
C6       0.93351    0.18747    0.60145   1.00
C6       1.11283    0.28307    0.55449   1.00
C6       1.08942    0.34802    0.60223   1.00
C6       1.10649    0.27523    0.63836   1.00
C6       1.01224    0.13806    0.64855   1.00
H2       1.01131    0.19209    0.67955   1.00
C6       0.96149    0.15853    0.69656   1.00
H2       0.99295    0.26642    0.64967   1.00
C6       0.93867    0.28366    0.62428   1.00
C6       0.94739    0.25664    0.69101   1.00
H2       0.94692    0.16169    0.58829   1.00
C6       0.89746    0.17228    0.62513   1.00
C6       0.91499    0.21151    0.56705   1.00
C6       1.11106    0.23929    0.54173   1.00
C6       1.10921    0.30775    0.51618   1.00
H2       1.14297    0.28788    0.56359   1.00
H2       1.07827    0.35949    0.57470   1.00
C6       1.06279    0.36622    0.63461   1.00
C6       1.13095    0.36607    0.60786   1.00
H2       1.10078    0.29625    0.66161   1.00
C6       1.08685    0.23664    0.65231   1.00
C6       1.15154    0.26756    0.63911   1.00
H2       1.03688    0.14654    0.63019   1.00
H2       0.99320    0.11910    0.63137   1.00
H2       1.02425    0.12083    0.67257   1.00
H2       0.97765    0.15392    0.72369   1.00
H2       0.93748    0.17822    0.70303   1.00
H2       0.94883    0.13036    0.68870   1.00
H2       0.94221    0.31328    0.63564   1.00
H2       0.94750    0.28468    0.59380   1.00
H2       0.90767    0.27648    0.62572   1.00
H2       0.96626    0.24138    0.71163   1.00
H2       0.94596    0.28692    0.70104   1.00
H2       0.91798    0.24450    0.69287   1.00
H2       0.88612    0.19486    0.64455   1.00
H2       0.87363    0.16292    0.60605   1.00
H2       0.90488    0.14668    0.64229   1.00
H2       0.89188    0.23098    0.57712   1.00
H2       0.93589    0.22932    0.55140   1.00
H2       0.90192    0.19172    0.54567   1.00
H2       1.08515    0.23312    0.52439   1.00
H2       1.13632    0.23191    0.52368   1.00
H2       1.11133    0.21952    0.56658   1.00
H2       1.13123    0.29875    0.49489   1.00
H2       1.08092    0.30426    0.50222   1.00
H2       1.11401    0.33878    0.52138   1.00
H2       1.06165    0.39798    0.63155   1.00
H2       1.03279    0.35565    0.63232   1.00
H2       1.07343    0.35965    0.66389   1.00
H2       1.15136    0.35584    0.58567   1.00
H2       1.12969    0.39788    0.60537   1.00
H2       1.14286    0.35915    0.63660   1.00
H2       1.08927    0.21344    0.63067   1.00
H2       1.09952    0.22619    0.67963   1.00
H2       1.05605    0.24166    0.65773   1.00
H2       1.16119    0.25956    0.66846   1.00
H2       1.15965    0.24378    0.61947   1.00
H2       1.16806    0.29343    0.63077   1.00
C4       0.99719    0.50117    0.22916   1.00
C4       0.99745    0.50049    0.27088   1.00
C3       0.96310    0.49529    0.20636   1.00
C3       0.96447    0.49037    0.29384   1.00
C3       1.03296    0.50747    0.20877   1.00
C3       1.03244    0.51053    0.29114   1.00
C2       0.99943    0.50105    0.14488   1.00
C2       1.00057    0.49895    0.35512   1.00
C3       0.96419    0.49500    0.16538   1.00
C3       0.96586    0.48996    0.33481   1.00
C3       1.03333    0.50781    0.16742   1.00
C3       1.03369    0.50832    0.33238   1.00
H1       0.93645    0.49117    0.21885   1.00
H1       0.93854    0.48275    0.28148   1.00
C5       1.06811    0.51357    0.22980   1.00
C5       1.06608    0.52238    0.27020   1.00
H1       0.93866    0.49031    0.15045   1.00
H1       0.94101    0.48274    0.34990   1.00
H1       1.05900    0.51344    0.15320   1.00
H1       1.05962    0.51317    0.34632   1.00
O3       1.10332    0.51312    0.21039   1.00
O3       1.09739    0.53948    0.28901   1.00
Si1      1.12830    0.47264    0.20753   1.00
Si1      1.09647    0.58638    0.29721   1.00
C6       1.16413    0.48957    0.17462   1.00
C6       1.14841    0.46365    0.25402   1.00
C6       1.10145    0.43351    0.18747   1.00
C6       1.05449    0.61283    0.28307   1.00
C6       1.10223    0.58942    0.34802   1.00
C6       1.13836    0.60649    0.27523   1.00
C6       1.14855    0.51224    0.13806   1.00
H2       1.17955    0.51131    0.19209   1.00
C6       1.19656    0.46149    0.15853   1.00
H2       1.14967    0.49295    0.26642   1.00
C6       1.12428    0.43867    0.28366   1.00
C6       1.19101    0.44739    0.25664   1.00
H2       1.08829    0.44692    0.16169   1.00
C6       1.12513    0.39746    0.17228   1.00
C6       1.06705    0.41499    0.21151   1.00
C6       1.04173    0.61106    0.23929   1.00
C6       1.01618    0.60921    0.30775   1.00
H2       1.06359    0.64297    0.28788   1.00
H2       1.07470    0.57827    0.35949   1.00
C6       1.13461    0.56279    0.36622   1.00
C6       1.10786    0.63095    0.36607   1.00
H2       1.16161    0.60078    0.29625   1.00
C6       1.15231    0.58685    0.23664   1.00
C6       1.13911    0.65154    0.26756   1.00
H2       1.13019    0.53688    0.14654   1.00
H2       1.13137    0.49320    0.11910   1.00
H2       1.17257    0.52425    0.12083   1.00
H2       1.22369    0.47765    0.15392   1.00
H2       1.20303    0.43748    0.17822   1.00
H2       1.18870    0.44883    0.13036   1.00
H2       1.13564    0.44221    0.31328   1.00
H2       1.09380    0.44750    0.28468   1.00
H2       1.12572    0.40767    0.27648   1.00
H2       1.21163    0.46626    0.24138   1.00
H2       1.20104    0.44596    0.28692   1.00
H2       1.19287    0.41798    0.24450   1.00
H2       1.14455    0.38612    0.19486   1.00
H2       1.10605    0.37363    0.16292   1.00
H2       1.14229    0.40488    0.14668   1.00
H2       1.07712    0.39188    0.23098   1.00
H2       1.05140    0.43589    0.22932   1.00
H2       1.04567    0.40192    0.19172   1.00
H2       1.02439    0.58515    0.23312   1.00
H2       1.02368    0.63632    0.23191   1.00
H2       1.06658    0.61133    0.21952   1.00
H2       0.99489    0.63123    0.29875   1.00
H2       1.00222    0.58092    0.30426   1.00
H2       1.02138    0.61401    0.33878   1.00
H2       1.13155    0.56165    0.39798   1.00
H2       1.13232    0.53279    0.35565   1.00
H2       1.16389    0.57343    0.35965   1.00
H2       1.08567    0.65136    0.35584   1.00
H2       1.10537    0.62969    0.39788   1.00
H2       1.13660    0.64286    0.35915   1.00
H2       1.13067    0.58927    0.21344   1.00
H2       1.17963    0.59952    0.22619   1.00
H2       1.15773    0.55605    0.24166   1.00
H2       1.16846    0.66119    0.25956   1.00
H2       1.11947    0.65965    0.24378   1.00
H2       1.13077    0.66806    0.29343   1.00
