data_IRMOF10_SG202_interpen_Ligand10lp_label_b.

_audit_creation_method             'generated by an auxiliary program of Tobunporous'

_symmetry_space_group_name_H-M     'P 1'
_symmetry_Int_Tables_number        1
_symmetry_cell_setting             triclinic

_cell_length_a                    34.2800
_cell_length_b                    34.2800
_cell_length_c                    34.2800
_cell_angle_alpha                 90.0000
_cell_angle_beta                  90.0000
_cell_angle_gamma                 90.0000

loop_
_atom_site_label
_atom_site_fract_x
_atom_site_fract_y
_atom_site_fract_z
_atom_site_occupancy
O1       0.75000    0.75000    0.75000   1.00
Zn1      0.71720    0.78280    0.78280   1.00
Zn1      0.78280    0.71720    0.78280   1.00
Zn1      0.78280    0.78280    0.71720   1.00
Zn1      0.71720    0.71720    0.71720   1.00
O2       0.72650    0.77350    0.83820   1.00
O2       0.72650    0.83820    0.77350   1.00
O2       0.66180    0.77350    0.77350   1.00
O2       0.77350    0.72650    0.83820   1.00
O2       0.83820    0.72650    0.77350   1.00
O2       0.77350    0.66180    0.77350   1.00
O2       0.77350    0.83820    0.72650   1.00
O2       0.83820    0.77350    0.72650   1.00
O2       0.77350    0.77350    0.66180   1.00
O2       0.66180    0.72650    0.72650   1.00
O2       0.72650    0.66180    0.72650   1.00
O2       0.72650    0.72650    0.66180   1.00
C1       0.75000    0.75000    0.85520   1.00
C1       0.75000    0.85520    0.75000   1.00
C1       0.64480    0.75000    0.75000   1.00
C1       0.85520    0.75000    0.75000   1.00
C1       0.75000    0.64480    0.75000   1.00
C1       0.75000    0.75000    0.64480   1.00
O1       0.25000    0.25000    0.75000   1.00
Zn1      0.21720    0.28280    0.78280   1.00
Zn1      0.28280    0.21720    0.78280   1.00
Zn1      0.28280    0.28280    0.71720   1.00
Zn1      0.21720    0.21720    0.71720   1.00
O2       0.22650    0.27350    0.83820   1.00
O2       0.22650    0.33820    0.77350   1.00
O2       0.16180    0.27350    0.77350   1.00
O2       0.27350    0.22650    0.83820   1.00
O2       0.33820    0.22650    0.77350   1.00
O2       0.27350    0.16180    0.77350   1.00
O2       0.27350    0.33820    0.72650   1.00
O2       0.33820    0.27350    0.72650   1.00
O2       0.27350    0.27350    0.66180   1.00
O2       0.16180    0.22650    0.72650   1.00
O2       0.22650    0.16180    0.72650   1.00
O2       0.22650    0.22650    0.66180   1.00
C1       0.25000    0.25000    0.85520   1.00
C1       0.25000    0.35520    0.75000   1.00
C1       0.14480    0.25000    0.75000   1.00
C1       0.35520    0.25000    0.75000   1.00
C1       0.25000    0.14480    0.75000   1.00
C1       0.25000    0.25000    0.64480   1.00
O1       0.25000    0.75000    0.25000   1.00
Zn1      0.21720    0.78280    0.28280   1.00
Zn1      0.28280    0.71720    0.28280   1.00
Zn1      0.28280    0.78280    0.21720   1.00
Zn1      0.21720    0.71720    0.21720   1.00
O2       0.22650    0.77350    0.33820   1.00
O2       0.22650    0.83820    0.27350   1.00
O2       0.16180    0.77350    0.27350   1.00
O2       0.27350    0.72650    0.33820   1.00
O2       0.33820    0.72650    0.27350   1.00
O2       0.27350    0.66180    0.27350   1.00
O2       0.27350    0.83820    0.22650   1.00
O2       0.33820    0.77350    0.22650   1.00
O2       0.27350    0.77350    0.16180   1.00
O2       0.16180    0.72650    0.22650   1.00
O2       0.22650    0.66180    0.22650   1.00
O2       0.22650    0.72650    0.16180   1.00
C1       0.25000    0.75000    0.35520   1.00
C1       0.25000    0.85520    0.25000   1.00
C1       0.14480    0.75000    0.25000   1.00
C1       0.35520    0.75000    0.25000   1.00
C1       0.25000    0.64480    0.25000   1.00
C1       0.25000    0.75000    0.14480   1.00
O1       0.75000    0.25000    0.25000   1.00
Zn1      0.71720    0.28280    0.28280   1.00
Zn1      0.78280    0.21720    0.28280   1.00
Zn1      0.78280    0.28280    0.21720   1.00
Zn1      0.71720    0.21720    0.21720   1.00
O2       0.72650    0.27350    0.33820   1.00
O2       0.72650    0.33820    0.27350   1.00
O2       0.66180    0.27350    0.27350   1.00
O2       0.77350    0.22650    0.33820   1.00
O2       0.83820    0.22650    0.27350   1.00
O2       0.77350    0.16180    0.27350   1.00
O2       0.77350    0.33820    0.22650   1.00
O2       0.83820    0.27350    0.22650   1.00
O2       0.77350    0.27350    0.16180   1.00
O2       0.66180    0.22650    0.22650   1.00
O2       0.72650    0.16180    0.22650   1.00
O2       0.72650    0.22650    0.16180   1.00
C1       0.75000    0.25000    0.35520   1.00
C1       0.75000    0.35520    0.25000   1.00
C1       0.64480    0.25000    0.25000   1.00
C1       0.85520    0.25000    0.25000   1.00
C1       0.75000    0.14480    0.25000   1.00
C1       0.75000    0.25000    0.14480   1.00
O1       0.25000    0.25000    0.25000   1.00
Zn1      0.28280    0.21720    0.21720   1.00
Zn1      0.21720    0.28280    0.21720   1.00
Zn1      0.21720    0.21720    0.28280   1.00
Zn1      0.28280    0.28280    0.28280   1.00
O2       0.27350    0.22650    0.16180   1.00
O2       0.27350    0.16180    0.22650   1.00
O2       0.33820    0.22650    0.22650   1.00
O2       0.22650    0.27350    0.16180   1.00
O2       0.16180    0.27350    0.22650   1.00
O2       0.22650    0.33820    0.22650   1.00
O2       0.22650    0.16180    0.27350   1.00
O2       0.16180    0.22650    0.27350   1.00
O2       0.22650    0.22650    0.33820   1.00
O2       0.33820    0.27350    0.27350   1.00
O2       0.27350    0.33820    0.27350   1.00
O2       0.27350    0.27350    0.33820   1.00
C1       0.25000    0.25000    0.14480   1.00
C1       0.25000    0.14480    0.25000   1.00
C1       0.35520    0.25000    0.25000   1.00
C1       0.14480    0.25000    0.25000   1.00
C1       0.25000    0.35520    0.25000   1.00
C1       0.25000    0.25000    0.35520   1.00
O1       0.75000    0.75000    0.25000   1.00
Zn1      0.78280    0.71720    0.21720   1.00
Zn1      0.71720    0.78280    0.21720   1.00
Zn1      0.71720    0.71720    0.28280   1.00
Zn1      0.78280    0.78280    0.28280   1.00
O2       0.77350    0.72650    0.16180   1.00
O2       0.77350    0.66180    0.22650   1.00
O2       0.83820    0.72650    0.22650   1.00
O2       0.72650    0.77350    0.16180   1.00
O2       0.66180    0.77350    0.22650   1.00
O2       0.72650    0.83820    0.22650   1.00
O2       0.72650    0.66180    0.27350   1.00
O2       0.66180    0.72650    0.27350   1.00
O2       0.72650    0.72650    0.33820   1.00
O2       0.83820    0.77350    0.27350   1.00
O2       0.77350    0.83820    0.27350   1.00
O2       0.77350    0.77350    0.33820   1.00
C1       0.75000    0.75000    0.14480   1.00
C1       0.75000    0.64480    0.25000   1.00
C1       0.85520    0.75000    0.25000   1.00
C1       0.64480    0.75000    0.25000   1.00
C1       0.75000    0.85520    0.25000   1.00
C1       0.75000    0.75000    0.35520   1.00
O1       0.75000    0.25000    0.75000   1.00
Zn1      0.78280    0.21720    0.71720   1.00
Zn1      0.71720    0.28280    0.71720   1.00
Zn1      0.71720    0.21720    0.78280   1.00
Zn1      0.78280    0.28280    0.78280   1.00
O2       0.77350    0.22650    0.66180   1.00
O2       0.77350    0.16180    0.72650   1.00
O2       0.83820    0.22650    0.72650   1.00
O2       0.72650    0.27350    0.66180   1.00
O2       0.66180    0.27350    0.72650   1.00
O2       0.72650    0.33820    0.72650   1.00
O2       0.72650    0.16180    0.77350   1.00
O2       0.66180    0.22650    0.77350   1.00
O2       0.72650    0.22650    0.83820   1.00
O2       0.83820    0.27350    0.77350   1.00
O2       0.77350    0.33820    0.77350   1.00
O2       0.77350    0.27350    0.83820   1.00
C1       0.75000    0.25000    0.64480   1.00
C1       0.75000    0.14480    0.75000   1.00
C1       0.85520    0.25000    0.75000   1.00
C1       0.64480    0.25000    0.75000   1.00
C1       0.75000    0.35520    0.75000   1.00
C1       0.75000    0.25000    0.85520   1.00
O1       0.25000    0.75000    0.75000   1.00
Zn1      0.28280    0.71720    0.71720   1.00
Zn1      0.21720    0.78280    0.71720   1.00
Zn1      0.21720    0.71720    0.78280   1.00
Zn1      0.28280    0.78280    0.78280   1.00
O2       0.27350    0.72650    0.66180   1.00
O2       0.27350    0.66180    0.72650   1.00
O2       0.33820    0.72650    0.72650   1.00
O2       0.22650    0.77350    0.66180   1.00
O2       0.16180    0.77350    0.72650   1.00
O2       0.22650    0.83820    0.72650   1.00
O2       0.22650    0.66180    0.77350   1.00
O2       0.16180    0.72650    0.77350   1.00
O2       0.22650    0.72650    0.83820   1.00
O2       0.33820    0.77350    0.77350   1.00
O2       0.27350    0.83820    0.77350   1.00
O2       0.27350    0.77350    0.83820   1.00
C1       0.25000    0.75000    0.64480   1.00
C1       0.25000    0.64480    0.75000   1.00
C1       0.35520    0.75000    0.75000   1.00
C1       0.14480    0.75000    0.75000   1.00
C1       0.25000    0.85520    0.75000   1.00
C1       0.25000    0.75000    0.85520   1.00
O1       1.00000    1.00000    1.00000   1.00
Zn1      0.96720    1.03280    1.03280   1.00
Zn1      1.03280    0.96720    1.03280   1.00
Zn1      1.03280    1.03280    0.96720   1.00
Zn1      0.96720    0.96720    0.96720   1.00
O2       0.97650    1.02350    1.08820   1.00
O2       0.97650    1.08820    1.02350   1.00
O2       0.91180    1.02350    1.02350   1.00
O2       1.02350    0.97650    1.08820   1.00
O2       1.08820    0.97650    1.02350   1.00
O2       1.02350    0.91180    1.02350   1.00
O2       1.02350    1.08820    0.97650   1.00
O2       1.08820    1.02350    0.97650   1.00
O2       1.02350    1.02350    0.91180   1.00
O2       0.91180    0.97650    0.97650   1.00
O2       0.97650    0.91180    0.97650   1.00
O2       0.97650    0.97650    0.91180   1.00
C1       1.00000    1.00000    1.10520   1.00
C1       1.00000    1.10520    1.00000   1.00
C1       0.89480    1.00000    1.00000   1.00
C1       1.10520    1.00000    1.00000   1.00
C1       1.00000    0.89480    1.00000   1.00
C1       1.00000    1.00000    0.89480   1.00
O1       0.50000    0.50000    1.00000   1.00
Zn1      0.46720    0.53280    1.03280   1.00
Zn1      0.53280    0.46720    1.03280   1.00
Zn1      0.53280    0.53280    0.96720   1.00
Zn1      0.46720    0.46720    0.96720   1.00
O2       0.47650    0.52350    1.08820   1.00
O2       0.47650    0.58820    1.02350   1.00
O2       0.41180    0.52350    1.02350   1.00
O2       0.52350    0.47650    1.08820   1.00
O2       0.58820    0.47650    1.02350   1.00
O2       0.52350    0.41180    1.02350   1.00
O2       0.52350    0.58820    0.97650   1.00
O2       0.58820    0.52350    0.97650   1.00
O2       0.52350    0.52350    0.91180   1.00
O2       0.41180    0.47650    0.97650   1.00
O2       0.47650    0.41180    0.97650   1.00
O2       0.47650    0.47650    0.91180   1.00
C1       0.50000    0.50000    1.10520   1.00
C1       0.50000    0.60520    1.00000   1.00
C1       0.39480    0.50000    1.00000   1.00
C1       0.60520    0.50000    1.00000   1.00
C1       0.50000    0.39480    1.00000   1.00
C1       0.50000    0.50000    0.89480   1.00
O1       0.50000    1.00000    0.50000   1.00
Zn1      0.46720    1.03280    0.53280   1.00
Zn1      0.53280    0.96720    0.53280   1.00
Zn1      0.53280    1.03280    0.46720   1.00
Zn1      0.46720    0.96720    0.46720   1.00
O2       0.47650    1.02350    0.58820   1.00
O2       0.47650    1.08820    0.52350   1.00
O2       0.41180    1.02350    0.52350   1.00
O2       0.52350    0.97650    0.58820   1.00
O2       0.58820    0.97650    0.52350   1.00
O2       0.52350    0.91180    0.52350   1.00
O2       0.52350    1.08820    0.47650   1.00
O2       0.58820    1.02350    0.47650   1.00
O2       0.52350    1.02350    0.41180   1.00
O2       0.41180    0.97650    0.47650   1.00
O2       0.47650    0.91180    0.47650   1.00
O2       0.47650    0.97650    0.41180   1.00
C1       0.50000    1.00000    0.60520   1.00
C1       0.50000    1.10520    0.50000   1.00
C1       0.39480    1.00000    0.50000   1.00
C1       0.60520    1.00000    0.50000   1.00
C1       0.50000    0.89480    0.50000   1.00
C1       0.50000    1.00000    0.39480   1.00
O1       1.00000    0.50000    0.50000   1.00
Zn1      0.96720    0.53280    0.53280   1.00
Zn1      1.03280    0.46720    0.53280   1.00
Zn1      1.03280    0.53280    0.46720   1.00
Zn1      0.96720    0.46720    0.46720   1.00
O2       0.97650    0.52350    0.58820   1.00
O2       0.97650    0.58820    0.52350   1.00
O2       0.91180    0.52350    0.52350   1.00
O2       1.02350    0.47650    0.58820   1.00
O2       1.08820    0.47650    0.52350   1.00
O2       1.02350    0.41180    0.52350   1.00
O2       1.02350    0.58820    0.47650   1.00
O2       1.08820    0.52350    0.47650   1.00
O2       1.02350    0.52350    0.41180   1.00
O2       0.91180    0.47650    0.47650   1.00
O2       0.97650    0.41180    0.47650   1.00
O2       0.97650    0.47650    0.41180   1.00
C1       1.00000    0.50000    0.60520   1.00
C1       1.00000    0.60520    0.50000   1.00
C1       0.89480    0.50000    0.50000   1.00
C1       1.10520    0.50000    0.50000   1.00
C1       1.00000    0.39480    0.50000   1.00
C1       1.00000    0.50000    0.39480   1.00
O1       0.50000    0.50000    0.50000   1.00
Zn1      0.53280    0.46720    0.46720   1.00
Zn1      0.46720    0.53280    0.46720   1.00
Zn1      0.46720    0.46720    0.53280   1.00
Zn1      0.53280    0.53280    0.53280   1.00
O2       0.52350    0.47650    0.41180   1.00
O2       0.52350    0.41180    0.47650   1.00
O2       0.58820    0.47650    0.47650   1.00
O2       0.47650    0.52350    0.41180   1.00
O2       0.41180    0.52350    0.47650   1.00
O2       0.47650    0.58820    0.47650   1.00
O2       0.47650    0.41180    0.52350   1.00
O2       0.41180    0.47650    0.52350   1.00
O2       0.47650    0.47650    0.58820   1.00
O2       0.58820    0.52350    0.52350   1.00
O2       0.52350    0.58820    0.52350   1.00
O2       0.52350    0.52350    0.58820   1.00
C1       0.50000    0.50000    0.39480   1.00
C1       0.50000    0.39480    0.50000   1.00
C1       0.60520    0.50000    0.50000   1.00
C1       0.39480    0.50000    0.50000   1.00
C1       0.50000    0.60520    0.50000   1.00
C1       0.50000    0.50000    0.60520   1.00
O1       1.00000    1.00000    0.50000   1.00
Zn1      1.03280    0.96720    0.46720   1.00
Zn1      0.96720    1.03280    0.46720   1.00
Zn1      0.96720    0.96720    0.53280   1.00
Zn1      1.03280    1.03280    0.53280   1.00
O2       1.02350    0.97650    0.41180   1.00
O2       1.02350    0.91180    0.47650   1.00
O2       1.08820    0.97650    0.47650   1.00
O2       0.97650    1.02350    0.41180   1.00
O2       0.91180    1.02350    0.47650   1.00
O2       0.97650    1.08820    0.47650   1.00
O2       0.97650    0.91180    0.52350   1.00
O2       0.91180    0.97650    0.52350   1.00
O2       0.97650    0.97650    0.58820   1.00
O2       1.08820    1.02350    0.52350   1.00
O2       1.02350    1.08820    0.52350   1.00
O2       1.02350    1.02350    0.58820   1.00
C1       1.00000    1.00000    0.39480   1.00
C1       1.00000    0.89480    0.50000   1.00
C1       1.10520    1.00000    0.50000   1.00
C1       0.89480    1.00000    0.50000   1.00
C1       1.00000    1.10520    0.50000   1.00
C1       1.00000    1.00000    0.60520   1.00
O1       1.00000    0.50000    1.00000   1.00
Zn1      1.03280    0.46720    0.96720   1.00
Zn1      0.96720    0.53280    0.96720   1.00
Zn1      0.96720    0.46720    1.03280   1.00
Zn1      1.03280    0.53280    1.03280   1.00
O2       1.02350    0.47650    0.91180   1.00
O2       1.02350    0.41180    0.97650   1.00
O2       1.08820    0.47650    0.97650   1.00
O2       0.97650    0.52350    0.91180   1.00
O2       0.91180    0.52350    0.97650   1.00
O2       0.97650    0.58820    0.97650   1.00
O2       0.97650    0.41180    1.02350   1.00
O2       0.91180    0.47650    1.02350   1.00
O2       0.97650    0.47650    1.08820   1.00
O2       1.08820    0.52350    1.02350   1.00
O2       1.02350    0.58820    1.02350   1.00
O2       1.02350    0.52350    1.08820   1.00
C1       1.00000    0.50000    0.89480   1.00
C1       1.00000    0.39480    1.00000   1.00
C1       1.10520    0.50000    1.00000   1.00
C1       0.89480    0.50000    1.00000   1.00
C1       1.00000    0.60520    1.00000   1.00
C1       1.00000    0.50000    1.10520   1.00
O1       0.50000    1.00000    1.00000   1.00
Zn1      0.53280    0.96720    0.96720   1.00
Zn1      0.46720    1.03280    0.96720   1.00
Zn1      0.46720    0.96720    1.03280   1.00
Zn1      0.53280    1.03280    1.03280   1.00
O2       0.52350    0.97650    0.91180   1.00
O2       0.52350    0.91180    0.97650   1.00
O2       0.58820    0.97650    0.97650   1.00
O2       0.47650    1.02350    0.91180   1.00
O2       0.41180    1.02350    0.97650   1.00
O2       0.47650    1.08820    0.97650   1.00
O2       0.47650    0.91180    1.02350   1.00
O2       0.41180    0.97650    1.02350   1.00
O2       0.47650    0.97650    1.08820   1.00
O2       0.58820    1.02350    1.02350   1.00
O2       0.52350    1.08820    1.02350   1.00
O2       0.52350    1.02350    1.08820   1.00
C1       0.50000    1.00000    0.89480   1.00
C1       0.50000    0.89480    1.00000   1.00
C1       0.60520    1.00000    1.00000   1.00
C1       0.39480    1.00000    1.00000   1.00
C1       0.50000    1.10520    1.00000   1.00
C1       0.50000    1.00000    1.10520   1.00
C4       0.74987    0.75036    0.97915   1.00
C4       0.75013    0.74964    1.02085   1.00
C3       0.77602    0.77390    0.95751   1.00
C3       0.78526    0.75039    1.04252   1.00
C3       0.72385    0.72679    0.95738   1.00
C3       0.71502    0.74903    1.04259   1.00
C2       0.75015    0.75006    0.89482   1.00
C2       0.75015    0.75006    1.10518   1.00
C3a      0.77627    0.77387    0.91599   1.00
C3       0.78519    0.75058    1.08382   1.00
C3       0.72405    0.72668    0.91611   1.00
C3a      0.71482    0.74921    1.08403   1.00
H1       0.79619    0.79267    0.97294   1.00
H1       0.81305    0.75047    1.02750   1.00
C5       0.80443    0.79946    0.89410   1.00
H1       0.81271    0.75111    1.09933   1.00
H1       0.70388    0.70800    0.90056   1.00
C5       0.67643    0.74849    1.10535   1.00
H1       0.68731    0.74956    1.02747   1.00
H1       0.70366    0.70762    0.97230   1.00
H2       0.66124    0.72069    1.09837   1.00
H2       0.68090    0.74914    1.13747   1.00
N1       0.65233    0.78182    1.09395   1.00
C6       0.63794    0.78896    1.05810   1.00
C6       0.64016    0.81078    1.11757   1.00
C6       0.61646    0.82299    1.05873   1.00
C6       0.61788    0.83687    1.09656   1.00
H3       0.64265    0.77060    1.03281   1.00
H3       0.64715    0.81296    1.14831   1.00
H3       0.60139    0.83620    1.03436   1.00
H3       0.60419    0.86306    1.10758   1.00
H2       0.80035    0.79474    0.86228   1.00
H2       0.79875    0.83083    0.90001   1.00
N1       0.84450    0.79029    0.90523   1.00
C6       0.87483    0.77627    0.88078   1.00
C6       0.86150    0.79375    0.94285   1.00
C6       0.90825    0.77152    0.90277   1.00
C6       0.90006    0.78224    0.94091   1.00
H3       0.87192    0.77024    0.84992   1.00
H3       0.84627    0.80348    0.96876   1.00
H3       0.93604    0.76114    0.89205   1.00
H3       0.92035    0.78161    0.96505   1.00
C4       0.75036    0.97915    0.74987   1.00
C4       0.74964    1.02085    0.75013   1.00
C3       0.77390    0.95751    0.77602   1.00
C3       0.75039    1.04252    0.78526   1.00
C3       0.72679    0.95738    0.72385   1.00
C3       0.74903    1.04259    0.71502   1.00
C2       0.75006    0.89482    0.75015   1.00
C2       0.75006    1.10518    0.75015   1.00
C3a      0.77387    0.91599    0.77627   1.00
C3       0.75058    1.08382    0.78519   1.00
C3       0.72668    0.91611    0.72405   1.00
C3a      0.74921    1.08403    0.71482   1.00
H1       0.79267    0.97294    0.79619   1.00
H1       0.75047    1.02750    0.81305   1.00
C5       0.79946    0.89410    0.80443   1.00
H1       0.75111    1.09933    0.81271   1.00
H1       0.70800    0.90056    0.70388   1.00
C5       0.74849    1.10535    0.67643   1.00
H1       0.74956    1.02747    0.68731   1.00
H1       0.70762    0.97230    0.70366   1.00
H2       0.72069    1.09837    0.66124   1.00
H2       0.74914    1.13747    0.68090   1.00
N1       0.78182    1.09395    0.65233   1.00
C6       0.78896    1.05810    0.63794   1.00
C6       0.81078    1.11757    0.64016   1.00
C6       0.82299    1.05873    0.61646   1.00
C6       0.83687    1.09656    0.61788   1.00
H3       0.77060    1.03281    0.64265   1.00
H3       0.81296    1.14831    0.64715   1.00
H3       0.83620    1.03436    0.60139   1.00
H3       0.86306    1.10758    0.60419   1.00
H2       0.79474    0.86228    0.80035   1.00
H2       0.83083    0.90001    0.79875   1.00
N1       0.79029    0.90523    0.84450   1.00
C6       0.77627    0.88078    0.87483   1.00
C6       0.79375    0.94285    0.86150   1.00
C6       0.77152    0.90277    0.90825   1.00
C6       0.78224    0.94091    0.90006   1.00
H3       0.77024    0.84992    0.87192   1.00
H3       0.80348    0.96876    0.84627   1.00
H3       0.76114    0.89205    0.93604   1.00
H3       0.78161    0.96505    0.92035   1.00
C4       0.52085    0.74987    0.74964   1.00
C4       0.47915    0.75013    0.75036   1.00
C3       0.54249    0.77602    0.72610   1.00
C3       0.45748    0.78526    0.74961   1.00
C3       0.54262    0.72385    0.77321   1.00
C3       0.45741    0.71502    0.75097   1.00
C2       0.60518    0.75015    0.74994   1.00
C2       0.39482    0.75015    0.74994   1.00
C3a      0.58401    0.77627    0.72613   1.00
C3       0.41618    0.78519    0.74942   1.00
C3       0.58389    0.72405    0.77332   1.00
C3a      0.41597    0.71482    0.75079   1.00
H1       0.52706    0.79619    0.70733   1.00
H1       0.47250    0.81305    0.74953   1.00
C5       0.60590    0.80443    0.70054   1.00
H1       0.40067    0.81271    0.74889   1.00
H1       0.59944    0.70388    0.79200   1.00
C5       0.39465    0.67643    0.75151   1.00
H1       0.47253    0.68731    0.75044   1.00
H1       0.52770    0.70366    0.79238   1.00
H2       0.40163    0.66124    0.77931   1.00
H2       0.36253    0.68090    0.75086   1.00
N1       0.40605    0.65233    0.71818   1.00
C6       0.44190    0.63794    0.71104   1.00
C6       0.38243    0.64016    0.68922   1.00
C6       0.44127    0.61646    0.67701   1.00
C6       0.40344    0.61788    0.66313   1.00
H3       0.46719    0.64265    0.72940   1.00
H3       0.35169    0.64715    0.68704   1.00
H3       0.46564    0.60139    0.66380   1.00
H3       0.39242    0.60419    0.63694   1.00
H2       0.63772    0.80035    0.70526   1.00
H2       0.59999    0.79875    0.66917   1.00
N1       0.59477    0.84450    0.70971   1.00
C6       0.61922    0.87483    0.72373   1.00
C6       0.55715    0.86150    0.70625   1.00
C6       0.59723    0.90825    0.72848   1.00
C6       0.55909    0.90006    0.71776   1.00
H3       0.65008    0.87192    0.72976   1.00
H3       0.53124    0.84627    0.69652   1.00
H3       0.60795    0.93604    0.73886   1.00
H3       0.53495    0.92035    0.71839   1.00
C4       0.97915    0.74987    0.75036   1.00
C4       1.02085    0.75013    0.74964   1.00
C3       0.95751    0.77602    0.77390   1.00
C3       1.04252    0.78526    0.75039   1.00
C3       0.95738    0.72385    0.72679   1.00
C3       1.04259    0.71502    0.74903   1.00
C2       0.89482    0.75015    0.75006   1.00
C2       1.10518    0.75015    0.75006   1.00
C3a      0.91599    0.77627    0.77387   1.00
C3       1.08382    0.78519    0.75058   1.00
C3       0.91611    0.72405    0.72668   1.00
C3a      1.08403    0.71482    0.74921   1.00
H1       0.97294    0.79619    0.79267   1.00
H1       1.02750    0.81305    0.75047   1.00
C5       0.89410    0.80443    0.79946   1.00
H1       1.09933    0.81271    0.75111   1.00
H1       0.90056    0.70388    0.70800   1.00
C5       1.10535    0.67643    0.74849   1.00
H1       1.02747    0.68731    0.74956   1.00
H1       0.97230    0.70366    0.70762   1.00
H2       1.09837    0.66124    0.72069   1.00
H2       1.13747    0.68090    0.74914   1.00
N1       1.09395    0.65233    0.78182   1.00
C6       1.05810    0.63794    0.78896   1.00
C6       1.11757    0.64016    0.81078   1.00
C6       1.05873    0.61646    0.82299   1.00
C6       1.09656    0.61788    0.83687   1.00
H3       1.03281    0.64265    0.77060   1.00
H3       1.14831    0.64715    0.81296   1.00
H3       1.03436    0.60139    0.83620   1.00
H3       1.10758    0.60419    0.86306   1.00
H2       0.86228    0.80035    0.79474   1.00
H2       0.90001    0.79875    0.83083   1.00
N1       0.90523    0.84450    0.79029   1.00
C6       0.88078    0.87483    0.77627   1.00
C6       0.94285    0.86150    0.79375   1.00
C6       0.90277    0.90825    0.77152   1.00
C6       0.94091    0.90006    0.78224   1.00
H3       0.84992    0.87192    0.77024   1.00
H3       0.96876    0.84627    0.80348   1.00
H3       0.89205    0.93604    0.76114   1.00
H3       0.96505    0.92035    0.78161   1.00
C4       0.74964    0.52085    0.74987   1.00
C4       0.75036    0.47915    0.75013   1.00
C3       0.72610    0.54249    0.77602   1.00
C3       0.74961    0.45748    0.78526   1.00
C3       0.77321    0.54262    0.72385   1.00
C3       0.75097    0.45741    0.71502   1.00
C2       0.74994    0.60518    0.75015   1.00
C2       0.74994    0.39482    0.75015   1.00
C3a      0.72613    0.58401    0.77627   1.00
C3       0.74942    0.41618    0.78519   1.00
C3       0.77332    0.58389    0.72405   1.00
C3a      0.75079    0.41597    0.71482   1.00
H1       0.70733    0.52706    0.79619   1.00
H1       0.74953    0.47250    0.81305   1.00
C5       0.70054    0.60590    0.80443   1.00
H1       0.74889    0.40067    0.81271   1.00
H1       0.79200    0.59944    0.70388   1.00
C5       0.75151    0.39465    0.67643   1.00
H1       0.75044    0.47253    0.68731   1.00
H1       0.79238    0.52770    0.70366   1.00
H2       0.77931    0.40163    0.66124   1.00
H2       0.75086    0.36253    0.68090   1.00
N1       0.71818    0.40605    0.65233   1.00
C6       0.71104    0.44190    0.63794   1.00
C6       0.68922    0.38243    0.64016   1.00
C6       0.67701    0.44127    0.61646   1.00
C6       0.66313    0.40344    0.61788   1.00
H3       0.72940    0.46719    0.64265   1.00
H3       0.68704    0.35169    0.64715   1.00
H3       0.66380    0.46564    0.60139   1.00
H3       0.63694    0.39242    0.60419   1.00
H2       0.70526    0.63772    0.80035   1.00
H2       0.66917    0.59999    0.79875   1.00
N1       0.70971    0.59477    0.84450   1.00
C6       0.72373    0.61922    0.87483   1.00
C6       0.70625    0.55715    0.86150   1.00
C6       0.72848    0.59723    0.90825   1.00
C6       0.71776    0.55909    0.90006   1.00
H3       0.72976    0.65008    0.87192   1.00
H3       0.69652    0.53124    0.84627   1.00
H3       0.73886    0.60795    0.93604   1.00
H3       0.71839    0.53495    0.92035   1.00
C4       0.74987    0.74964    0.52085   1.00
C4       0.75013    0.75036    0.47915   1.00
C3       0.77602    0.72610    0.54249   1.00
C3       0.78526    0.74961    0.45748   1.00
C3       0.72385    0.77321    0.54262   1.00
C3       0.71502    0.75097    0.45741   1.00
C2       0.75015    0.74994    0.60518   1.00
C2       0.75015    0.74994    0.39482   1.00
C3a      0.77627    0.72613    0.58401   1.00
C3       0.78519    0.74942    0.41618   1.00
C3       0.72405    0.77332    0.58389   1.00
C3a      0.71482    0.75079    0.41597   1.00
H1       0.79619    0.70733    0.52706   1.00
H1       0.81305    0.74953    0.47250   1.00
C5       0.80443    0.70054    0.60590   1.00
H1       0.81271    0.74889    0.40067   1.00
H1       0.70388    0.79200    0.59944   1.00
C5       0.67643    0.75151    0.39465   1.00
H1       0.68731    0.75044    0.47253   1.00
H1       0.70366    0.79238    0.52770   1.00
H2       0.66124    0.77931    0.40163   1.00
H2       0.68090    0.75086    0.36253   1.00
N1       0.65233    0.71818    0.40605   1.00
C6       0.63794    0.71104    0.44190   1.00
C6       0.64016    0.68922    0.38243   1.00
C6       0.61646    0.67701    0.44127   1.00
C6       0.61788    0.66313    0.40344   1.00
H3       0.64265    0.72940    0.46719   1.00
H3       0.64715    0.68704    0.35169   1.00
H3       0.60139    0.66380    0.46564   1.00
H3       0.60419    0.63694    0.39242   1.00
H2       0.80035    0.70526    0.63772   1.00
H2       0.79875    0.66917    0.59999   1.00
N1       0.84450    0.70971    0.59477   1.00
C6       0.87483    0.72373    0.61922   1.00
C6       0.86150    0.70625    0.55715   1.00
C6       0.90825    0.72848    0.59723   1.00
C6       0.90006    0.71776    0.55909   1.00
H3       0.87192    0.72976    0.65008   1.00
H3       0.84627    0.69652    0.53124   1.00
H3       0.93604    0.73886    0.60795   1.00
H3       0.92035    0.71839    0.53495   1.00
C4       0.24987    0.25036    0.97915   1.00
C4       0.25013    0.24964    1.02085   1.00
C3       0.27602    0.27390    0.95751   1.00
C3       0.28526    0.25039    1.04252   1.00
C3       0.22385    0.22679    0.95738   1.00
C3       0.21502    0.24903    1.04259   1.00
C2       0.25015    0.25006    0.89482   1.00
C2       0.25015    0.25006    1.10518   1.00
C3a      0.27627    0.27387    0.91599   1.00
C3       0.28519    0.25058    1.08382   1.00
C3       0.22405    0.22668    0.91611   1.00
C3a      0.21482    0.24921    1.08403   1.00
H1       0.29619    0.29267    0.97294   1.00
H1       0.31305    0.25047    1.02750   1.00
C5       0.30443    0.29946    0.89410   1.00
H1       0.31271    0.25111    1.09933   1.00
H1       0.20388    0.20800    0.90056   1.00
C5       0.17643    0.24849    1.10535   1.00
H1       0.18731    0.24956    1.02747   1.00
H1       0.20366    0.20762    0.97230   1.00
H2       0.16124    0.22069    1.09837   1.00
H2       0.18090    0.24914    1.13747   1.00
N1       0.15233    0.28182    1.09395   1.00
C6       0.13794    0.28896    1.05810   1.00
C6       0.14016    0.31078    1.11757   1.00
C6       0.11646    0.32299    1.05873   1.00
C6       0.11788    0.33687    1.09656   1.00
H3       0.14265    0.27060    1.03281   1.00
H3       0.14715    0.31296    1.14831   1.00
H3       0.10139    0.33620    1.03436   1.00
H3       0.10419    0.36306    1.10758   1.00
H2       0.30035    0.29474    0.86228   1.00
H2       0.29875    0.33083    0.90001   1.00
N1       0.34450    0.29029    0.90523   1.00
C6       0.37483    0.27627    0.88078   1.00
C6       0.36150    0.29375    0.94285   1.00
C6       0.40825    0.27152    0.90277   1.00
C6       0.40006    0.28224    0.94091   1.00
H3       0.37192    0.27024    0.84992   1.00
H3       0.34627    0.30348    0.96876   1.00
H3       0.43604    0.26114    0.89205   1.00
H3       0.42035    0.28161    0.96505   1.00
C4       0.25036    0.47915    0.74987   1.00
C4       0.24964    0.52085    0.75013   1.00
C3       0.27390    0.45751    0.77602   1.00
C3       0.25039    0.54252    0.78526   1.00
C3       0.22679    0.45738    0.72385   1.00
C3       0.24903    0.54259    0.71502   1.00
C2       0.25006    0.39482    0.75015   1.00
C2       0.25006    0.60518    0.75015   1.00
C3a      0.27387    0.41599    0.77627   1.00
C3       0.25058    0.58382    0.78519   1.00
C3       0.22668    0.41611    0.72405   1.00
C3a      0.24921    0.58403    0.71482   1.00
H1       0.29267    0.47294    0.79619   1.00
H1       0.25047    0.52750    0.81305   1.00
C5       0.29946    0.39410    0.80443   1.00
H1       0.25111    0.59933    0.81271   1.00
H1       0.20800    0.40056    0.70388   1.00
C5       0.24849    0.60535    0.67643   1.00
H1       0.24956    0.52747    0.68731   1.00
H1       0.20762    0.47230    0.70366   1.00
H2       0.22069    0.59837    0.66124   1.00
H2       0.24914    0.63747    0.68090   1.00
N1       0.28182    0.59395    0.65233   1.00
C6       0.28896    0.55810    0.63794   1.00
C6       0.31078    0.61757    0.64016   1.00
C6       0.32299    0.55873    0.61646   1.00
C6       0.33687    0.59656    0.61788   1.00
H3       0.27060    0.53281    0.64265   1.00
H3       0.31296    0.64831    0.64715   1.00
H3       0.33620    0.53436    0.60139   1.00
H3       0.36306    0.60758    0.60419   1.00
H2       0.29474    0.36228    0.80035   1.00
H2       0.33083    0.40001    0.79875   1.00
N1       0.29029    0.40523    0.84450   1.00
C6       0.27627    0.38078    0.87483   1.00
C6       0.29375    0.44285    0.86150   1.00
C6       0.27152    0.40277    0.90825   1.00
C6       0.28224    0.44091    0.90006   1.00
H3       0.27024    0.34992    0.87192   1.00
H3       0.30348    0.46876    0.84627   1.00
H3       0.26114    0.39205    0.93604   1.00
H3       0.28161    0.46505    0.92035   1.00
C4       0.02085    0.24987    0.74964   1.00
C4       -0.02085   0.25013    0.75036   1.00
C3       0.04249    0.27602    0.72610   1.00
C3       -0.04252   0.28526    0.74961   1.00
C3       0.04262    0.22385    0.77321   1.00
C3       -0.04259   0.21502    0.75097   1.00
C2       0.10518    0.25015    0.74994   1.00
C2       -0.10518   0.25015    0.74994   1.00
C3a      0.08401    0.27627    0.72613   1.00
C3       -0.08382   0.28519    0.74942   1.00
C3       0.08389    0.22405    0.77332   1.00
C3a      -0.08403   0.21482    0.75079   1.00
H1       0.02706    0.29619    0.70733   1.00
H1       -0.02750   0.31305    0.74953   1.00
C5       0.10590    0.30443    0.70054   1.00
H1       -0.09933   0.31271    0.74889   1.00
H1       0.09944    0.20388    0.79200   1.00
C5       -0.10535   0.17643    0.75151   1.00
H1       -0.02747   0.18731    0.75044   1.00
H1       0.02770    0.20366    0.79238   1.00
H2       -0.09837   0.16124    0.77931   1.00
H2       -0.13747   0.18090    0.75086   1.00
N1       -0.09395   0.15233    0.71818   1.00
C6       -0.05810   0.13794    0.71104   1.00
C6       -0.11757   0.14016    0.68922   1.00
C6       -0.05873   0.11646    0.67701   1.00
C6       -0.09656   0.11788    0.66313   1.00
H3       -0.03281   0.14265    0.72940   1.00
H3       -0.14831   0.14715    0.68704   1.00
H3       -0.03436   0.10139    0.66380   1.00
H3       -0.10758   0.10419    0.63694   1.00
H2       0.13772    0.30035    0.70526   1.00
H2       0.09999    0.29875    0.66917   1.00
N1       0.09477    0.34450    0.70971   1.00
C6       0.11922    0.37483    0.72373   1.00
C6       0.05715    0.36150    0.70625   1.00
C6       0.09723    0.40825    0.72848   1.00
C6       0.05909    0.40006    0.71776   1.00
H3       0.15008    0.37192    0.72976   1.00
H3       0.03124    0.34627    0.69652   1.00
H3       0.10795    0.43604    0.73886   1.00
H3       0.03495    0.42035    0.71839   1.00
C4       0.47915    0.24987    0.75036   1.00
C4       0.52085    0.25013    0.74964   1.00
C3       0.45751    0.27602    0.77390   1.00
C3       0.54252    0.28526    0.75039   1.00
C3       0.45738    0.22385    0.72679   1.00
C3       0.54259    0.21502    0.74903   1.00
C2       0.39482    0.25015    0.75006   1.00
C2       0.60518    0.25015    0.75006   1.00
C3a      0.41599    0.27627    0.77387   1.00
C3       0.58382    0.28519    0.75058   1.00
C3       0.41611    0.22405    0.72668   1.00
C3a      0.58403    0.21482    0.74921   1.00
H1       0.47294    0.29619    0.79267   1.00
H1       0.52750    0.31305    0.75047   1.00
C5       0.39410    0.30443    0.79946   1.00
H1       0.59933    0.31271    0.75111   1.00
H1       0.40056    0.20388    0.70800   1.00
C5       0.60535    0.17643    0.74849   1.00
H1       0.52747    0.18731    0.74956   1.00
H1       0.47230    0.20366    0.70762   1.00
H2       0.59837    0.16124    0.72069   1.00
H2       0.63747    0.18090    0.74914   1.00
N1       0.59395    0.15233    0.78182   1.00
C6       0.55810    0.13794    0.78896   1.00
C6       0.61757    0.14016    0.81078   1.00
C6       0.55873    0.11646    0.82299   1.00
C6       0.59656    0.11788    0.83687   1.00
H3       0.53281    0.14265    0.77060   1.00
H3       0.64831    0.14715    0.81296   1.00
H3       0.53436    0.10139    0.83620   1.00
H3       0.60758    0.10419    0.86306   1.00
H2       0.36228    0.30035    0.79474   1.00
H2       0.40001    0.29875    0.83083   1.00
N1       0.40523    0.34450    0.79029   1.00
C6       0.38078    0.37483    0.77627   1.00
C6       0.44285    0.36150    0.79375   1.00
C6       0.40277    0.40825    0.77152   1.00
C6       0.44091    0.40006    0.78224   1.00
H3       0.34992    0.37192    0.77024   1.00
H3       0.46876    0.34627    0.80348   1.00
H3       0.39205    0.43604    0.76114   1.00
H3       0.46505    0.42035    0.78161   1.00
C4       0.24964    0.02085    0.74987   1.00
C4       0.25036    -0.02085   0.75013   1.00
C3       0.22610    0.04249    0.77602   1.00
C3       0.24961    -0.04252   0.78526   1.00
C3       0.27321    0.04262    0.72385   1.00
C3       0.25097    -0.04259   0.71502   1.00
C2       0.24994    0.10518    0.75015   1.00
C2       0.24994    -0.10518   0.75015   1.00
C3a      0.22613    0.08401    0.77627   1.00
C3       0.24942    -0.08382   0.78519   1.00
C3       0.27332    0.08389    0.72405   1.00
C3a      0.25079    -0.08403   0.71482   1.00
H1       0.20733    0.02706    0.79619   1.00
H1       0.24953    -0.02750   0.81305   1.00
C5       0.20054    0.10590    0.80443   1.00
H1       0.24889    -0.09933   0.81271   1.00
H1       0.29200    0.09944    0.70388   1.00
C5       0.25151    -0.10535   0.67643   1.00
H1       0.25044    -0.02747   0.68731   1.00
H1       0.29238    0.02770    0.70366   1.00
H2       0.27931    -0.09837   0.66124   1.00
H2       0.25086    -0.13747   0.68090   1.00
N1       0.21818    -0.09395   0.65233   1.00
C6       0.21104    -0.05810   0.63794   1.00
C6       0.18922    -0.11757   0.64016   1.00
C6       0.17701    -0.05873   0.61646   1.00
C6       0.16313    -0.09656   0.61788   1.00
H3       0.22940    -0.03281   0.64265   1.00
H3       0.18704    -0.14831   0.64715   1.00
H3       0.16380    -0.03436   0.60139   1.00
H3       0.13694    -0.10758   0.60419   1.00
H2       0.20526    0.13772    0.80035   1.00
H2       0.16917    0.09999    0.79875   1.00
N1       0.20971    0.09477    0.84450   1.00
C6       0.22373    0.11922    0.87483   1.00
C6       0.20625    0.05715    0.86150   1.00
C6       0.22848    0.09723    0.90825   1.00
C6       0.21776    0.05909    0.90006   1.00
H3       0.22976    0.15008    0.87192   1.00
H3       0.19652    0.03124    0.84627   1.00
H3       0.23886    0.10795    0.93604   1.00
H3       0.21839    0.03495    0.92035   1.00
C4       0.24987    0.24964    0.52085   1.00
C4       0.25013    0.25036    0.47915   1.00
C3       0.27602    0.22610    0.54249   1.00
C3       0.28526    0.24961    0.45748   1.00
C3       0.22385    0.27321    0.54262   1.00
C3       0.21502    0.25097    0.45741   1.00
C2       0.25015    0.24994    0.60518   1.00
C2       0.25015    0.24994    0.39482   1.00
C3a      0.27627    0.22613    0.58401   1.00
C3       0.28519    0.24942    0.41618   1.00
C3       0.22405    0.27332    0.58389   1.00
C3a      0.21482    0.25079    0.41597   1.00
H1       0.29619    0.20733    0.52706   1.00
H1       0.31305    0.24953    0.47250   1.00
C5       0.30443    0.20054    0.60590   1.00
H1       0.31271    0.24889    0.40067   1.00
H1       0.20388    0.29200    0.59944   1.00
C5       0.17643    0.25151    0.39465   1.00
H1       0.18731    0.25044    0.47253   1.00
H1       0.20366    0.29238    0.52770   1.00
H2       0.16124    0.27931    0.40163   1.00
H2       0.18090    0.25086    0.36253   1.00
N1       0.15233    0.21818    0.40605   1.00
C6       0.13794    0.21104    0.44190   1.00
C6       0.14016    0.18922    0.38243   1.00
C6       0.11646    0.17701    0.44127   1.00
C6       0.11788    0.16313    0.40344   1.00
H3       0.14265    0.22940    0.46719   1.00
H3       0.14715    0.18704    0.35169   1.00
H3       0.10139    0.16380    0.46564   1.00
H3       0.10419    0.13694    0.39242   1.00
H2       0.30035    0.20526    0.63772   1.00
H2       0.29875    0.16917    0.59999   1.00
N1       0.34450    0.20971    0.59477   1.00
C6       0.37483    0.22373    0.61922   1.00
C6       0.36150    0.20625    0.55715   1.00
C6       0.40825    0.22848    0.59723   1.00
C6       0.40006    0.21776    0.55909   1.00
H3       0.37192    0.22976    0.65008   1.00
H3       0.34627    0.19652    0.53124   1.00
H3       0.43604    0.23886    0.60795   1.00
H3       0.42035    0.21839    0.53495   1.00
C4       0.24987    0.75036    0.47915   1.00
C4       0.25013    0.74964    0.52085   1.00
C3       0.27602    0.77390    0.45751   1.00
C3       0.28526    0.75039    0.54252   1.00
C3       0.22385    0.72679    0.45738   1.00
C3       0.21502    0.74903    0.54259   1.00
C2       0.25015    0.75006    0.39482   1.00
C2       0.25015    0.75006    0.60518   1.00
C3a      0.27627    0.77387    0.41599   1.00
C3       0.28519    0.75058    0.58382   1.00
C3       0.22405    0.72668    0.41611   1.00
C3a      0.21482    0.74921    0.58403   1.00
H1       0.29619    0.79267    0.47294   1.00
H1       0.31305    0.75047    0.52750   1.00
C5       0.30443    0.79946    0.39410   1.00
H1       0.31271    0.75111    0.59933   1.00
H1       0.20388    0.70800    0.40056   1.00
C5       0.17643    0.74849    0.60535   1.00
H1       0.18731    0.74956    0.52747   1.00
H1       0.20366    0.70762    0.47230   1.00
H2       0.16124    0.72069    0.59837   1.00
H2       0.18090    0.74914    0.63747   1.00
N1       0.15233    0.78182    0.59395   1.00
C6       0.13794    0.78896    0.55810   1.00
C6       0.14016    0.81078    0.61757   1.00
C6       0.11646    0.82299    0.55873   1.00
C6       0.11788    0.83687    0.59656   1.00
H3       0.14265    0.77060    0.53281   1.00
H3       0.14715    0.81296    0.64831   1.00
H3       0.10139    0.83620    0.53436   1.00
H3       0.10419    0.86306    0.60758   1.00
H2       0.30035    0.79474    0.36228   1.00
H2       0.29875    0.83083    0.40001   1.00
N1       0.34450    0.79029    0.40523   1.00
C6       0.37483    0.77627    0.38078   1.00
C6       0.36150    0.79375    0.44285   1.00
C6       0.40825    0.77152    0.40277   1.00
C6       0.40006    0.78224    0.44091   1.00
H3       0.37192    0.77024    0.34992   1.00
H3       0.34627    0.80348    0.46876   1.00
H3       0.43604    0.76114    0.39205   1.00
H3       0.42035    0.78161    0.46505   1.00
C4       0.25036    0.97915    0.24987   1.00
C4       0.24964    1.02085    0.25013   1.00
C3       0.27390    0.95751    0.27602   1.00
C3       0.25039    1.04252    0.28526   1.00
C3       0.22679    0.95738    0.22385   1.00
C3       0.24903    1.04259    0.21502   1.00
C2       0.25006    0.89482    0.25015   1.00
C2       0.25006    1.10518    0.25015   1.00
C3a      0.27387    0.91599    0.27627   1.00
C3       0.25058    1.08382    0.28519   1.00
C3       0.22668    0.91611    0.22405   1.00
C3a      0.24921    1.08403    0.21482   1.00
H1       0.29267    0.97294    0.29619   1.00
H1       0.25047    1.02750    0.31305   1.00
C5       0.29946    0.89410    0.30443   1.00
H1       0.25111    1.09933    0.31271   1.00
H1       0.20800    0.90056    0.20388   1.00
C5       0.24849    1.10535    0.17643   1.00
H1       0.24956    1.02747    0.18731   1.00
H1       0.20762    0.97230    0.20366   1.00
H2       0.22069    1.09837    0.16124   1.00
H2       0.24914    1.13747    0.18090   1.00
N1       0.28182    1.09395    0.15233   1.00
C6       0.28896    1.05810    0.13794   1.00
C6       0.31078    1.11757    0.14016   1.00
C6       0.32299    1.05873    0.11646   1.00
C6       0.33687    1.09656    0.11788   1.00
H3       0.27060    1.03281    0.14265   1.00
H3       0.31296    1.14831    0.14715   1.00
H3       0.33620    1.03436    0.10139   1.00
H3       0.36306    1.10758    0.10419   1.00
H2       0.29474    0.86228    0.30035   1.00
H2       0.33083    0.90001    0.29875   1.00
N1       0.29029    0.90523    0.34450   1.00
C6       0.27627    0.88078    0.37483   1.00
C6       0.29375    0.94285    0.36150   1.00
C6       0.27152    0.90277    0.40825   1.00
C6       0.28224    0.94091    0.40006   1.00
H3       0.27024    0.84992    0.37192   1.00
H3       0.30348    0.96876    0.34627   1.00
H3       0.26114    0.89205    0.43604   1.00
H3       0.28161    0.96505    0.42035   1.00
C4       0.02085    0.74987    0.24964   1.00
C4       -0.02085   0.75013    0.25036   1.00
C3       0.04249    0.77602    0.22610   1.00
C3       -0.04252   0.78526    0.24961   1.00
C3       0.04262    0.72385    0.27321   1.00
C3       -0.04259   0.71502    0.25097   1.00
C2       0.10518    0.75015    0.24994   1.00
C2       -0.10518   0.75015    0.24994   1.00
C3a      0.08401    0.77627    0.22613   1.00
C3       -0.08382   0.78519    0.24942   1.00
C3       0.08389    0.72405    0.27332   1.00
C3a      -0.08403   0.71482    0.25079   1.00
H1       0.02706    0.79619    0.20733   1.00
H1       -0.02750   0.81305    0.24953   1.00
C5       0.10590    0.80443    0.20054   1.00
H1       -0.09933   0.81271    0.24889   1.00
H1       0.09944    0.70388    0.29200   1.00
C5       -0.10535   0.67643    0.25151   1.00
H1       -0.02747   0.68731    0.25044   1.00
H1       0.02770    0.70366    0.29238   1.00
H2       -0.09837   0.66124    0.27931   1.00
H2       -0.13747   0.68090    0.25086   1.00
N1       -0.09395   0.65233    0.21818   1.00
C6       -0.05810   0.63794    0.21104   1.00
C6       -0.11757   0.64016    0.18922   1.00
C6       -0.05873   0.61646    0.17701   1.00
C6       -0.09656   0.61788    0.16313   1.00
H3       -0.03281   0.64265    0.22940   1.00
H3       -0.14831   0.64715    0.18704   1.00
H3       -0.03436   0.60139    0.16380   1.00
H3       -0.10758   0.60419    0.13694   1.00
H2       0.13772    0.80035    0.20526   1.00
H2       0.09999    0.79875    0.16917   1.00
N1       0.09477    0.84450    0.20971   1.00
C6       0.11922    0.87483    0.22373   1.00
C6       0.05715    0.86150    0.20625   1.00
C6       0.09723    0.90825    0.22848   1.00
C6       0.05909    0.90006    0.21776   1.00
H3       0.15008    0.87192    0.22976   1.00
H3       0.03124    0.84627    0.19652   1.00
H3       0.10795    0.93604    0.23886   1.00
H3       0.03495    0.92035    0.21839   1.00
C4       0.47915    0.74987    0.25036   1.00
C4       0.52085    0.75013    0.24964   1.00
C3       0.45751    0.77602    0.27390   1.00
C3       0.54252    0.78526    0.25039   1.00
C3       0.45738    0.72385    0.22679   1.00
C3       0.54259    0.71502    0.24903   1.00
C2       0.39482    0.75015    0.25006   1.00
C2       0.60518    0.75015    0.25006   1.00
C3a      0.41599    0.77627    0.27387   1.00
C3       0.58382    0.78519    0.25058   1.00
C3       0.41611    0.72405    0.22668   1.00
C3a      0.58403    0.71482    0.24921   1.00
H1       0.47294    0.79619    0.29267   1.00
H1       0.52750    0.81305    0.25047   1.00
C5       0.39410    0.80443    0.29946   1.00
H1       0.59933    0.81271    0.25111   1.00
H1       0.40056    0.70388    0.20800   1.00
C5       0.60535    0.67643    0.24849   1.00
H1       0.52747    0.68731    0.24956   1.00
H1       0.47230    0.70366    0.20762   1.00
H2       0.59837    0.66124    0.22069   1.00
H2       0.63747    0.68090    0.24914   1.00
N1       0.59395    0.65233    0.28182   1.00
C6       0.55810    0.63794    0.28896   1.00
C6       0.61757    0.64016    0.31078   1.00
C6       0.55873    0.61646    0.32299   1.00
C6       0.59656    0.61788    0.33687   1.00
H3       0.53281    0.64265    0.27060   1.00
H3       0.64831    0.64715    0.31296   1.00
H3       0.53436    0.60139    0.33620   1.00
H3       0.60758    0.60419    0.36306   1.00
H2       0.36228    0.80035    0.29474   1.00
H2       0.40001    0.79875    0.33083   1.00
N1       0.40523    0.84450    0.29029   1.00
C6       0.38078    0.87483    0.27627   1.00
C6       0.44285    0.86150    0.29375   1.00
C6       0.40277    0.90825    0.27152   1.00
C6       0.44091    0.90006    0.28224   1.00
H3       0.34992    0.87192    0.27024   1.00
H3       0.46876    0.84627    0.30348   1.00
H3       0.39205    0.93604    0.26114   1.00
H3       0.46505    0.92035    0.28161   1.00
C4       0.24964    0.52085    0.24987   1.00
C4       0.25036    0.47915    0.25013   1.00
C3       0.22610    0.54249    0.27602   1.00
C3       0.24961    0.45748    0.28526   1.00
C3       0.27321    0.54262    0.22385   1.00
C3       0.25097    0.45741    0.21502   1.00
C2       0.24994    0.60518    0.25015   1.00
C2       0.24994    0.39482    0.25015   1.00
C3a      0.22613    0.58401    0.27627   1.00
C3       0.24942    0.41618    0.28519   1.00
C3       0.27332    0.58389    0.22405   1.00
C3a      0.25079    0.41597    0.21482   1.00
H1       0.20733    0.52706    0.29619   1.00
H1       0.24953    0.47250    0.31305   1.00
C5       0.20054    0.60590    0.30443   1.00
H1       0.24889    0.40067    0.31271   1.00
H1       0.29200    0.59944    0.20388   1.00
C5       0.25151    0.39465    0.17643   1.00
H1       0.25044    0.47253    0.18731   1.00
H1       0.29238    0.52770    0.20366   1.00
H2       0.27931    0.40163    0.16124   1.00
H2       0.25086    0.36253    0.18090   1.00
N1       0.21818    0.40605    0.15233   1.00
C6       0.21104    0.44190    0.13794   1.00
C6       0.18922    0.38243    0.14016   1.00
C6       0.17701    0.44127    0.11646   1.00
C6       0.16313    0.40344    0.11788   1.00
H3       0.22940    0.46719    0.14265   1.00
H3       0.18704    0.35169    0.14715   1.00
H3       0.16380    0.46564    0.10139   1.00
H3       0.13694    0.39242    0.10419   1.00
H2       0.20526    0.63772    0.30035   1.00
H2       0.16917    0.59999    0.29875   1.00
N1       0.20971    0.59477    0.34450   1.00
C6       0.22373    0.61922    0.37483   1.00
C6       0.20625    0.55715    0.36150   1.00
C6       0.22848    0.59723    0.40825   1.00
C6       0.21776    0.55909    0.40006   1.00
H3       0.22976    0.65008    0.37192   1.00
H3       0.19652    0.53124    0.34627   1.00
H3       0.23886    0.60795    0.43604   1.00
H3       0.21839    0.53495    0.42035   1.00
C4       0.24987    0.74964    0.02085   1.00
C4       0.25013    0.75036    -0.02085   1.00
C3       0.27602    0.72610    0.04249   1.00
C3       0.28526    0.74961    -0.04252   1.00
C3       0.22385    0.77321    0.04262   1.00
C3       0.21502    0.75097    -0.04259   1.00
C2       0.25015    0.74994    0.10518   1.00
C2       0.25015    0.74994    -0.10518   1.00
C3a      0.27627    0.72613    0.08401   1.00
C3       0.28519    0.74942    -0.08382   1.00
C3       0.22405    0.77332    0.08389   1.00
C3a      0.21482    0.75079    -0.08403   1.00
H1       0.29619    0.70733    0.02706   1.00
H1       0.31305    0.74953    -0.02750   1.00
C5       0.30443    0.70054    0.10590   1.00
H1       0.31271    0.74889    -0.09933   1.00
H1       0.20388    0.79200    0.09944   1.00
C5       0.17643    0.75151    -0.10535   1.00
H1       0.18731    0.75044    -0.02747   1.00
H1       0.20366    0.79238    0.02770   1.00
H2       0.16124    0.77931    -0.09837   1.00
H2       0.18090    0.75086    -0.13747   1.00
N1       0.15233    0.71818    -0.09395   1.00
C6       0.13794    0.71104    -0.05810   1.00
C6       0.14016    0.68922    -0.11757   1.00
C6       0.11646    0.67701    -0.05873   1.00
C6       0.11788    0.66313    -0.09656   1.00
H3       0.14265    0.72940    -0.03281   1.00
H3       0.14715    0.68704    -0.14831   1.00
H3       0.10139    0.66380    -0.03436   1.00
H3       0.10419    0.63694    -0.10758   1.00
H2       0.30035    0.70526    0.13772   1.00
H2       0.29875    0.66917    0.09999   1.00
N1       0.34450    0.70971    0.09477   1.00
C6       0.37483    0.72373    0.11922   1.00
C6       0.36150    0.70625    0.05715   1.00
C6       0.40825    0.72848    0.09723   1.00
C6       0.40006    0.71776    0.05909   1.00
H3       0.37192    0.72976    0.15008   1.00
H3       0.34627    0.69652    0.03124   1.00
H3       0.43604    0.73886    0.10795   1.00
H3       0.42035    0.71839    0.03495   1.00
C4       0.74987    0.25036    0.47915   1.00
C4       0.75013    0.24964    0.52085   1.00
C3       0.77602    0.27390    0.45751   1.00
C3       0.78526    0.25039    0.54252   1.00
C3       0.72385    0.22679    0.45738   1.00
C3       0.71502    0.24903    0.54259   1.00
C2       0.75015    0.25006    0.39482   1.00
C2       0.75015    0.25006    0.60518   1.00
C3a      0.77627    0.27387    0.41599   1.00
C3       0.78519    0.25058    0.58382   1.00
C3       0.72405    0.22668    0.41611   1.00
C3a      0.71482    0.24921    0.58403   1.00
H1       0.79619    0.29267    0.47294   1.00
H1       0.81305    0.25047    0.52750   1.00
C5       0.80443    0.29946    0.39410   1.00
H1       0.81271    0.25111    0.59933   1.00
H1       0.70388    0.20800    0.40056   1.00
C5       0.67643    0.24849    0.60535   1.00
H1       0.68731    0.24956    0.52747   1.00
H1       0.70366    0.20762    0.47230   1.00
H2       0.66124    0.22069    0.59837   1.00
H2       0.68090    0.24914    0.63747   1.00
N1       0.65233    0.28182    0.59395   1.00
C6       0.63794    0.28896    0.55810   1.00
C6       0.64016    0.31078    0.61757   1.00
C6       0.61646    0.32299    0.55873   1.00
C6       0.61788    0.33687    0.59656   1.00
H3       0.64265    0.27060    0.53281   1.00
H3       0.64715    0.31296    0.64831   1.00
H3       0.60139    0.33620    0.53436   1.00
H3       0.60419    0.36306    0.60758   1.00
H2       0.80035    0.29474    0.36228   1.00
H2       0.79875    0.33083    0.40001   1.00
N1       0.84450    0.29029    0.40523   1.00
C6       0.87483    0.27627    0.38078   1.00
C6       0.86150    0.29375    0.44285   1.00
C6       0.90825    0.27152    0.40277   1.00
C6       0.90006    0.28224    0.44091   1.00
H3       0.87192    0.27024    0.34992   1.00
H3       0.84627    0.30348    0.46876   1.00
H3       0.93604    0.26114    0.39205   1.00
H3       0.92035    0.28161    0.46505   1.00
C4       0.75036    0.47915    0.24987   1.00
C4       0.74964    0.52085    0.25013   1.00
C3       0.77390    0.45751    0.27602   1.00
C3       0.75039    0.54252    0.28526   1.00
C3       0.72679    0.45738    0.22385   1.00
C3       0.74903    0.54259    0.21502   1.00
C2       0.75006    0.39482    0.25015   1.00
C2       0.75006    0.60518    0.25015   1.00
C3a      0.77387    0.41599    0.27627   1.00
C3       0.75058    0.58382    0.28519   1.00
C3       0.72668    0.41611    0.22405   1.00
C3a      0.74921    0.58403    0.21482   1.00
H1       0.79267    0.47294    0.29619   1.00
H1       0.75047    0.52750    0.31305   1.00
C5       0.79946    0.39410    0.30443   1.00
H1       0.75111    0.59933    0.31271   1.00
H1       0.70800    0.40056    0.20388   1.00
C5       0.74849    0.60535    0.17643   1.00
H1       0.74956    0.52747    0.18731   1.00
H1       0.70762    0.47230    0.20366   1.00
H2       0.72069    0.59837    0.16124   1.00
H2       0.74914    0.63747    0.18090   1.00
N1       0.78182    0.59395    0.15233   1.00
C6       0.78896    0.55810    0.13794   1.00
C6       0.81078    0.61757    0.14016   1.00
C6       0.82299    0.55873    0.11646   1.00
C6       0.83687    0.59656    0.11788   1.00
H3       0.77060    0.53281    0.14265   1.00
H3       0.81296    0.64831    0.14715   1.00
H3       0.83620    0.53436    0.10139   1.00
H3       0.86306    0.60758    0.10419   1.00
H2       0.79474    0.36228    0.30035   1.00
H2       0.83083    0.40001    0.29875   1.00
N1       0.79029    0.40523    0.34450   1.00
C6       0.77627    0.38078    0.37483   1.00
C6       0.79375    0.44285    0.36150   1.00
C6       0.77152    0.40277    0.40825   1.00
C6       0.78224    0.44091    0.40006   1.00
H3       0.77024    0.34992    0.37192   1.00
H3       0.80348    0.46876    0.34627   1.00
H3       0.76114    0.39205    0.43604   1.00
H3       0.78161    0.46505    0.42035   1.00
C4       0.52085    0.24987    0.24964   1.00
C4       0.47915    0.25013    0.25036   1.00
C3       0.54249    0.27602    0.22610   1.00
C3       0.45748    0.28526    0.24961   1.00
C3       0.54262    0.22385    0.27321   1.00
C3       0.45741    0.21502    0.25097   1.00
C2       0.60518    0.25015    0.24994   1.00
C2       0.39482    0.25015    0.24994   1.00
C3a      0.58401    0.27627    0.22613   1.00
C3       0.41618    0.28519    0.24942   1.00
C3       0.58389    0.22405    0.27332   1.00
C3a      0.41597    0.21482    0.25079   1.00
H1       0.52706    0.29619    0.20733   1.00
H1       0.47250    0.31305    0.24953   1.00
C5       0.60590    0.30443    0.20054   1.00
H1       0.40067    0.31271    0.24889   1.00
H1       0.59944    0.20388    0.29200   1.00
C5       0.39465    0.17643    0.25151   1.00
H1       0.47253    0.18731    0.25044   1.00
H1       0.52770    0.20366    0.29238   1.00
H2       0.40163    0.16124    0.27931   1.00
H2       0.36253    0.18090    0.25086   1.00
N1       0.40605    0.15233    0.21818   1.00
C6       0.44190    0.13794    0.21104   1.00
C6       0.38243    0.14016    0.18922   1.00
C6       0.44127    0.11646    0.17701   1.00
C6       0.40344    0.11788    0.16313   1.00
H3       0.46719    0.14265    0.22940   1.00
H3       0.35169    0.14715    0.18704   1.00
H3       0.46564    0.10139    0.16380   1.00
H3       0.39242    0.10419    0.13694   1.00
H2       0.63772    0.30035    0.20526   1.00
H2       0.59999    0.29875    0.16917   1.00
N1       0.59477    0.34450    0.20971   1.00
C6       0.61922    0.37483    0.22373   1.00
C6       0.55715    0.36150    0.20625   1.00
C6       0.59723    0.40825    0.22848   1.00
C6       0.55909    0.40006    0.21776   1.00
H3       0.65008    0.37192    0.22976   1.00
H3       0.53124    0.34627    0.19652   1.00
H3       0.60795    0.43604    0.23886   1.00
H3       0.53495    0.42035    0.21839   1.00
C4       0.97915    0.24987    0.25036   1.00
C4       1.02085    0.25013    0.24964   1.00
C3       0.95751    0.27602    0.27390   1.00
C3       1.04252    0.28526    0.25039   1.00
C3       0.95738    0.22385    0.22679   1.00
C3       1.04259    0.21502    0.24903   1.00
C2       0.89482    0.25015    0.25006   1.00
C2       1.10518    0.25015    0.25006   1.00
C3a      0.91599    0.27627    0.27387   1.00
C3       1.08382    0.28519    0.25058   1.00
C3       0.91611    0.22405    0.22668   1.00
C3a      1.08403    0.21482    0.24921   1.00
H1       0.97294    0.29619    0.29267   1.00
H1       1.02750    0.31305    0.25047   1.00
C5       0.89410    0.30443    0.29946   1.00
H1       1.09933    0.31271    0.25111   1.00
H1       0.90056    0.20388    0.20800   1.00
C5       1.10535    0.17643    0.24849   1.00
H1       1.02747    0.18731    0.24956   1.00
H1       0.97230    0.20366    0.20762   1.00
H2       1.09837    0.16124    0.22069   1.00
H2       1.13747    0.18090    0.24914   1.00
N1       1.09395    0.15233    0.28182   1.00
C6       1.05810    0.13794    0.28896   1.00
C6       1.11757    0.14016    0.31078   1.00
C6       1.05873    0.11646    0.32299   1.00
C6       1.09656    0.11788    0.33687   1.00
H3       1.03281    0.14265    0.27060   1.00
H3       1.14831    0.14715    0.31296   1.00
H3       1.03436    0.10139    0.33620   1.00
H3       1.10758    0.10419    0.36306   1.00
H2       0.86228    0.30035    0.29474   1.00
H2       0.90001    0.29875    0.33083   1.00
N1       0.90523    0.34450    0.29029   1.00
C6       0.88078    0.37483    0.27627   1.00
C6       0.94285    0.36150    0.29375   1.00
C6       0.90277    0.40825    0.27152   1.00
C6       0.94091    0.40006    0.28224   1.00
H3       0.84992    0.37192    0.27024   1.00
H3       0.96876    0.34627    0.30348   1.00
H3       0.89205    0.43604    0.26114   1.00
H3       0.96505    0.42035    0.28161   1.00
C4       0.74964    0.02085    0.24987   1.00
C4       0.75036    -0.02085   0.25013   1.00
C3       0.72610    0.04249    0.27602   1.00
C3       0.74961    -0.04252   0.28526   1.00
C3       0.77321    0.04262    0.22385   1.00
C3       0.75097    -0.04259   0.21502   1.00
C2       0.74994    0.10518    0.25015   1.00
C2       0.74994    -0.10518   0.25015   1.00
C3a      0.72613    0.08401    0.27627   1.00
C3       0.74942    -0.08382   0.28519   1.00
C3       0.77332    0.08389    0.22405   1.00
C3a      0.75079    -0.08403   0.21482   1.00
H1       0.70733    0.02706    0.29619   1.00
H1       0.74953    -0.02750   0.31305   1.00
C5       0.70054    0.10590    0.30443   1.00
H1       0.74889    -0.09933   0.31271   1.00
H1       0.79200    0.09944    0.20388   1.00
C5       0.75151    -0.10535   0.17643   1.00
H1       0.75044    -0.02747   0.18731   1.00
H1       0.79238    0.02770    0.20366   1.00
H2       0.77931    -0.09837   0.16124   1.00
H2       0.75086    -0.13747   0.18090   1.00
N1       0.71818    -0.09395   0.15233   1.00
C6       0.71104    -0.05810   0.13794   1.00
C6       0.68922    -0.11757   0.14016   1.00
C6       0.67701    -0.05873   0.11646   1.00
C6       0.66313    -0.09656   0.11788   1.00
H3       0.72940    -0.03281   0.14265   1.00
H3       0.68704    -0.14831   0.14715   1.00
H3       0.66380    -0.03436   0.10139   1.00
H3       0.63694    -0.10758   0.10419   1.00
H2       0.70526    0.13772    0.30035   1.00
H2       0.66917    0.09999    0.29875   1.00
N1       0.70971    0.09477    0.34450   1.00
C6       0.72373    0.11922    0.37483   1.00
C6       0.70625    0.05715    0.36150   1.00
C6       0.72848    0.09723    0.40825   1.00
C6       0.71776    0.05909    0.40006   1.00
H3       0.72976    0.15008    0.37192   1.00
H3       0.69652    0.03124    0.34627   1.00
H3       0.73886    0.10795    0.43604   1.00
H3       0.71839    0.03495    0.42035   1.00
C4       0.74987    0.24964    0.02085   1.00
C4       0.75013    0.25036    -0.02085   1.00
C3       0.77602    0.22610    0.04249   1.00
C3       0.78526    0.24961    -0.04252   1.00
C3       0.72385    0.27321    0.04262   1.00
C3       0.71502    0.25097    -0.04259   1.00
C2       0.75015    0.24994    0.10518   1.00
C2       0.75015    0.24994    -0.10518   1.00
C3a      0.77627    0.22613    0.08401   1.00
C3       0.78519    0.24942    -0.08382   1.00
C3       0.72405    0.27332    0.08389   1.00
C3a      0.71482    0.25079    -0.08403   1.00
H1       0.79619    0.20733    0.02706   1.00
H1       0.81305    0.24953    -0.02750   1.00
C5       0.80443    0.20054    0.10590   1.00
H1       0.81271    0.24889    -0.09933   1.00
H1       0.70388    0.29200    0.09944   1.00
C5       0.67643    0.25151    -0.10535   1.00
H1       0.68731    0.25044    -0.02747   1.00
H1       0.70366    0.29238    0.02770   1.00
H2       0.66124    0.27931    -0.09837   1.00
H2       0.68090    0.25086    -0.13747   1.00
N1       0.65233    0.21818    -0.09395   1.00
C6       0.63794    0.21104    -0.05810   1.00
C6       0.64016    0.18922    -0.11757   1.00
C6       0.61646    0.17701    -0.05873   1.00
C6       0.61788    0.16313    -0.09656   1.00
H3       0.64265    0.22940    -0.03281   1.00
H3       0.64715    0.18704    -0.14831   1.00
H3       0.60139    0.16380    -0.03436   1.00
H3       0.60419    0.13694    -0.10758   1.00
H2       0.80035    0.20526    0.13772   1.00
H2       0.79875    0.16917    0.09999   1.00
N1       0.84450    0.20971    0.09477   1.00
C6       0.87483    0.22373    0.11922   1.00
C6       0.86150    0.20625    0.05715   1.00
C6       0.90825    0.22848    0.09723   1.00
C6       0.90006    0.21776    0.05909   1.00
H3       0.87192    0.22976    0.15008   1.00
H3       0.84627    0.19652    0.03124   1.00
H3       0.93604    0.23886    0.10795   1.00
H3       0.92035    0.21839    0.03495   1.00
C4       0.99987    1.00036    1.22915   1.00
C4       1.00013    0.99964    1.27085   1.00
C3       1.02602    1.02390    1.20751   1.00
C3       1.03526    1.00039    1.29252   1.00
C3       0.97385    0.97679    1.20738   1.00
C3       0.96502    0.99903    1.29259   1.00
C2       1.00015    1.00006    1.14482   1.00
C2       1.00015    1.00006    1.35518   1.00
C3a      1.02627    1.02387    1.16599   1.00
C3       1.03519    1.00058    1.33382   1.00
C3       0.97405    0.97668    1.16611   1.00
C3a      0.96482    0.99921    1.33403   1.00
H1       1.04619    1.04267    1.22294   1.00
H1       1.06305    1.00047    1.27750   1.00
C5       1.05443    1.04946    1.14410   1.00
H1       1.06271    1.00111    1.34933   1.00
H1       0.95388    0.95800    1.15056   1.00
C5       0.92643    0.99849    1.35535   1.00
H1       0.93731    0.99956    1.27747   1.00
H1       0.95366    0.95762    1.22230   1.00
H2       0.91124    0.97069    1.34837   1.00
H2       0.93090    0.99914    1.38747   1.00
N1       0.90233    1.03182    1.34395   1.00
C6       0.88794    1.03896    1.30810   1.00
C6       0.89016    1.06078    1.36757   1.00
C6       0.86646    1.07299    1.30873   1.00
C6       0.86788    1.08687    1.34656   1.00
H3       0.89265    1.02060    1.28281   1.00
H3       0.89715    1.06296    1.39831   1.00
H3       0.85139    1.08620    1.28436   1.00
H3       0.85419    1.11306    1.35758   1.00
H2       1.05035    1.04474    1.11228   1.00
H2       1.04875    1.08083    1.15001   1.00
N1       1.09450    1.04029    1.15523   1.00
C6       1.12483    1.02627    1.13078   1.00
C6       1.11150    1.04375    1.19285   1.00
C6       1.15825    1.02152    1.15277   1.00
C6       1.15006    1.03224    1.19091   1.00
H3       1.12192    1.02024    1.09992   1.00
H3       1.09627    1.05348    1.21876   1.00
H3       1.18604    1.01114    1.14205   1.00
H3       1.17035    1.03161    1.21505   1.00
C4       1.00036    1.22915    0.99987   1.00
C4       0.99964    1.27085    1.00013   1.00
C3       1.02390    1.20751    1.02602   1.00
C3       1.00039    1.29252    1.03526   1.00
C3       0.97679    1.20738    0.97385   1.00
C3       0.99903    1.29259    0.96502   1.00
C2       1.00006    1.14482    1.00015   1.00
C2       1.00006    1.35518    1.00015   1.00
C3a      1.02387    1.16599    1.02627   1.00
C3       1.00058    1.33382    1.03519   1.00
C3       0.97668    1.16611    0.97405   1.00
C3a      0.99921    1.33403    0.96482   1.00
H1       1.04267    1.22294    1.04619   1.00
H1       1.00047    1.27750    1.06305   1.00
C5       1.04946    1.14410    1.05443   1.00
H1       1.00111    1.34933    1.06271   1.00
H1       0.95800    1.15056    0.95388   1.00
C5       0.99849    1.35535    0.92643   1.00
H1       0.99956    1.27747    0.93731   1.00
H1       0.95762    1.22230    0.95366   1.00
H2       0.97069    1.34837    0.91124   1.00
H2       0.99914    1.38747    0.93090   1.00
N1       1.03182    1.34395    0.90233   1.00
C6       1.03896    1.30810    0.88794   1.00
C6       1.06078    1.36757    0.89016   1.00
C6       1.07299    1.30873    0.86646   1.00
C6       1.08687    1.34656    0.86788   1.00
H3       1.02060    1.28281    0.89265   1.00
H3       1.06296    1.39831    0.89715   1.00
H3       1.08620    1.28436    0.85139   1.00
H3       1.11306    1.35758    0.85419   1.00
H2       1.04474    1.11228    1.05035   1.00
H2       1.08083    1.15001    1.04875   1.00
N1       1.04029    1.15523    1.09450   1.00
C6       1.02627    1.13078    1.12483   1.00
C6       1.04375    1.19285    1.11150   1.00
C6       1.02152    1.15277    1.15825   1.00
C6       1.03224    1.19091    1.15006   1.00
H3       1.02024    1.09992    1.12192   1.00
H3       1.05348    1.21876    1.09627   1.00
H3       1.01114    1.14205    1.18604   1.00
H3       1.03161    1.21505    1.17035   1.00
C4       0.77085    0.99987    0.99964   1.00
C4       0.72915    1.00013    1.00036   1.00
C3       0.79249    1.02602    0.97610   1.00
C3       0.70748    1.03526    0.99961   1.00
C3       0.79262    0.97385    1.02321   1.00
C3       0.70741    0.96502    1.00097   1.00
C2       0.85518    1.00015    0.99994   1.00
C2       0.64482    1.00015    0.99994   1.00
C3a      0.83401    1.02627    0.97613   1.00
C3       0.66618    1.03519    0.99942   1.00
C3       0.83389    0.97405    1.02332   1.00
C3a      0.66597    0.96482    1.00079   1.00
H1       0.77706    1.04619    0.95733   1.00
H1       0.72250    1.06305    0.99953   1.00
C5       0.85590    1.05443    0.95054   1.00
H1       0.65067    1.06271    0.99889   1.00
H1       0.84944    0.95388    1.04200   1.00
C5       0.64465    0.92643    1.00151   1.00
H1       0.72253    0.93731    1.00044   1.00
H1       0.77770    0.95366    1.04238   1.00
H2       0.65163    0.91124    1.02931   1.00
H2       0.61253    0.93090    1.00086   1.00
N1       0.65605    0.90233    0.96818   1.00
C6       0.69190    0.88794    0.96104   1.00
C6       0.63243    0.89016    0.93922   1.00
C6       0.69127    0.86646    0.92701   1.00
C6       0.65344    0.86788    0.91313   1.00
H3       0.71719    0.89265    0.97940   1.00
H3       0.60169    0.89715    0.93704   1.00
H3       0.71564    0.85139    0.91380   1.00
H3       0.64242    0.85419    0.88694   1.00
H2       0.88772    1.05035    0.95526   1.00
H2       0.84999    1.04875    0.91917   1.00
N1       0.84477    1.09450    0.95971   1.00
C6       0.86922    1.12483    0.97373   1.00
C6       0.80715    1.11150    0.95625   1.00
C6       0.84723    1.15825    0.97848   1.00
C6       0.80909    1.15006    0.96776   1.00
H3       0.90008    1.12192    0.97976   1.00
H3       0.78124    1.09627    0.94652   1.00
H3       0.85795    1.18604    0.98886   1.00
H3       0.78495    1.17035    0.96839   1.00
C4       1.22915    0.99987    1.00036   1.00
C4       1.27085    1.00013    0.99964   1.00
C3       1.20751    1.02602    1.02390   1.00
C3       1.29252    1.03526    1.00039   1.00
C3       1.20738    0.97385    0.97679   1.00
C3       1.29259    0.96502    0.99903   1.00
C2       1.14482    1.00015    1.00006   1.00
C2       1.35518    1.00015    1.00006   1.00
C3a      1.16599    1.02627    1.02387   1.00
C3       1.33382    1.03519    1.00058   1.00
C3       1.16611    0.97405    0.97668   1.00
C3a      1.33403    0.96482    0.99921   1.00
H1       1.22294    1.04619    1.04267   1.00
H1       1.27750    1.06305    1.00047   1.00
C5       1.14410    1.05443    1.04946   1.00
H1       1.34933    1.06271    1.00111   1.00
H1       1.15056    0.95388    0.95800   1.00
C5       1.35535    0.92643    0.99849   1.00
H1       1.27747    0.93731    0.99956   1.00
H1       1.22230    0.95366    0.95762   1.00
H2       1.34837    0.91124    0.97069   1.00
H2       1.38747    0.93090    0.99914   1.00
N1       1.34395    0.90233    1.03182   1.00
C6       1.30810    0.88794    1.03896   1.00
C6       1.36757    0.89016    1.06078   1.00
C6       1.30873    0.86646    1.07299   1.00
C6       1.34656    0.86788    1.08687   1.00
H3       1.28281    0.89265    1.02060   1.00
H3       1.39831    0.89715    1.06296   1.00
H3       1.28436    0.85139    1.08620   1.00
H3       1.35758    0.85419    1.11306   1.00
H2       1.11228    1.05035    1.04474   1.00
H2       1.15001    1.04875    1.08083   1.00
N1       1.15523    1.09450    1.04029   1.00
C6       1.13078    1.12483    1.02627   1.00
C6       1.19285    1.11150    1.04375   1.00
C6       1.15277    1.15825    1.02152   1.00
C6       1.19091    1.15006    1.03224   1.00
H3       1.09992    1.12192    1.02024   1.00
H3       1.21876    1.09627    1.05348   1.00
H3       1.14205    1.18604    1.01114   1.00
H3       1.21505    1.17035    1.03161   1.00
C4       0.99964    0.77085    0.99987   1.00
C4       1.00036    0.72915    1.00013   1.00
C3       0.97610    0.79249    1.02602   1.00
C3       0.99961    0.70748    1.03526   1.00
C3       1.02321    0.79262    0.97385   1.00
C3       1.00097    0.70741    0.96502   1.00
C2       0.99994    0.85518    1.00015   1.00
C2       0.99994    0.64482    1.00015   1.00
C3a      0.97613    0.83401    1.02627   1.00
C3       0.99942    0.66618    1.03519   1.00
C3       1.02332    0.83389    0.97405   1.00
C3a      1.00079    0.66597    0.96482   1.00
H1       0.95733    0.77706    1.04619   1.00
H1       0.99953    0.72250    1.06305   1.00
C5       0.95054    0.85590    1.05443   1.00
H1       0.99889    0.65067    1.06271   1.00
H1       1.04200    0.84944    0.95388   1.00
C5       1.00151    0.64465    0.92643   1.00
H1       1.00044    0.72253    0.93731   1.00
H1       1.04238    0.77770    0.95366   1.00
H2       1.02931    0.65163    0.91124   1.00
H2       1.00086    0.61253    0.93090   1.00
N1       0.96818    0.65605    0.90233   1.00
C6       0.96104    0.69190    0.88794   1.00
C6       0.93922    0.63243    0.89016   1.00
C6       0.92701    0.69127    0.86646   1.00
C6       0.91313    0.65344    0.86788   1.00
H3       0.97940    0.71719    0.89265   1.00
H3       0.93704    0.60169    0.89715   1.00
H3       0.91380    0.71564    0.85139   1.00
H3       0.88694    0.64242    0.85419   1.00
H2       0.95526    0.88772    1.05035   1.00
H2       0.91917    0.84999    1.04875   1.00
N1       0.95971    0.84477    1.09450   1.00
C6       0.97373    0.86922    1.12483   1.00
C6       0.95625    0.80715    1.11150   1.00
C6       0.97848    0.84723    1.15825   1.00
C6       0.96776    0.80909    1.15006   1.00
H3       0.97976    0.90008    1.12192   1.00
H3       0.94652    0.78124    1.09627   1.00
H3       0.98886    0.85795    1.18604   1.00
H3       0.96839    0.78495    1.17035   1.00
C4       0.99987    0.99964    0.77085   1.00
C4       1.00013    1.00036    0.72915   1.00
C3       1.02602    0.97610    0.79249   1.00
C3       1.03526    0.99961    0.70748   1.00
C3       0.97385    1.02321    0.79262   1.00
C3       0.96502    1.00097    0.70741   1.00
C2       1.00015    0.99994    0.85518   1.00
C2       1.00015    0.99994    0.64482   1.00
C3a      1.02627    0.97613    0.83401   1.00
C3       1.03519    0.99942    0.66618   1.00
C3       0.97405    1.02332    0.83389   1.00
C3a      0.96482    1.00079    0.66597   1.00
H1       1.04619    0.95733    0.77706   1.00
H1       1.06305    0.99953    0.72250   1.00
C5       1.05443    0.95054    0.85590   1.00
H1       1.06271    0.99889    0.65067   1.00
H1       0.95388    1.04200    0.84944   1.00
C5       0.92643    1.00151    0.64465   1.00
H1       0.93731    1.00044    0.72253   1.00
H1       0.95366    1.04238    0.77770   1.00
H2       0.91124    1.02931    0.65163   1.00
H2       0.93090    1.00086    0.61253   1.00
N1       0.90233    0.96818    0.65605   1.00
C6       0.88794    0.96104    0.69190   1.00
C6       0.89016    0.93922    0.63243   1.00
C6       0.86646    0.92701    0.69127   1.00
C6       0.86788    0.91313    0.65344   1.00
H3       0.89265    0.97940    0.71719   1.00
H3       0.89715    0.93704    0.60169   1.00
H3       0.85139    0.91380    0.71564   1.00
H3       0.85419    0.88694    0.64242   1.00
H2       1.05035    0.95526    0.88772   1.00
H2       1.04875    0.91917    0.84999   1.00
N1       1.09450    0.95971    0.84477   1.00
C6       1.12483    0.97373    0.86922   1.00
C6       1.11150    0.95625    0.80715   1.00
C6       1.15825    0.97848    0.84723   1.00
C6       1.15006    0.96776    0.80909   1.00
H3       1.12192    0.97976    0.90008   1.00
H3       1.09627    0.94652    0.78124   1.00
H3       1.18604    0.98886    0.85795   1.00
H3       1.17035    0.96839    0.78495   1.00
C4       0.49987    0.50036    1.22915   1.00
C4       0.50013    0.49964    1.27085   1.00
C3       0.52602    0.52390    1.20751   1.00
C3       0.53526    0.50039    1.29252   1.00
C3       0.47385    0.47679    1.20738   1.00
C3       0.46502    0.49903    1.29259   1.00
C2       0.50015    0.50006    1.14482   1.00
C2       0.50015    0.50006    1.35518   1.00
C3a      0.52627    0.52387    1.16599   1.00
C3       0.53519    0.50058    1.33382   1.00
C3       0.47405    0.47668    1.16611   1.00
C3a      0.46482    0.49921    1.33403   1.00
H1       0.54619    0.54267    1.22294   1.00
H1       0.56305    0.50047    1.27750   1.00
C5       0.55443    0.54946    1.14410   1.00
H1       0.56271    0.50111    1.34933   1.00
H1       0.45388    0.45800    1.15056   1.00
C5       0.42643    0.49849    1.35535   1.00
H1       0.43731    0.49956    1.27747   1.00
H1       0.45366    0.45762    1.22230   1.00
H2       0.41124    0.47069    1.34837   1.00
H2       0.43090    0.49914    1.38747   1.00
N1       0.40233    0.53182    1.34395   1.00
C6       0.38794    0.53896    1.30810   1.00
C6       0.39016    0.56078    1.36757   1.00
C6       0.36646    0.57299    1.30873   1.00
C6       0.36788    0.58687    1.34656   1.00
H3       0.39265    0.52060    1.28281   1.00
H3       0.39715    0.56296    1.39831   1.00
H3       0.35139    0.58620    1.28436   1.00
H3       0.35419    0.61306    1.35758   1.00
H2       0.55035    0.54474    1.11228   1.00
H2       0.54875    0.58083    1.15001   1.00
N1       0.59450    0.54029    1.15523   1.00
C6       0.62483    0.52627    1.13078   1.00
C6       0.61150    0.54375    1.19285   1.00
C6       0.65825    0.52152    1.15277   1.00
C6       0.65006    0.53224    1.19091   1.00
H3       0.62192    0.52024    1.09992   1.00
H3       0.59627    0.55348    1.21876   1.00
H3       0.68604    0.51114    1.14205   1.00
H3       0.67035    0.53161    1.21505   1.00
C4       0.50036    0.72915    0.99987   1.00
C4       0.49964    0.77085    1.00013   1.00
C3       0.52390    0.70751    1.02602   1.00
C3       0.50039    0.79252    1.03526   1.00
C3       0.47679    0.70738    0.97385   1.00
C3       0.49903    0.79259    0.96502   1.00
C2       0.50006    0.64482    1.00015   1.00
C2       0.50006    0.85518    1.00015   1.00
C3a      0.52387    0.66599    1.02627   1.00
C3       0.50058    0.83382    1.03519   1.00
C3       0.47668    0.66611    0.97405   1.00
C3a      0.49921    0.83403    0.96482   1.00
H1       0.54267    0.72294    1.04619   1.00
H1       0.50047    0.77750    1.06305   1.00
C5       0.54946    0.64410    1.05443   1.00
H1       0.50111    0.84933    1.06271   1.00
H1       0.45800    0.65056    0.95388   1.00
C5       0.49849    0.85535    0.92643   1.00
H1       0.49956    0.77747    0.93731   1.00
H1       0.45762    0.72230    0.95366   1.00
H2       0.47069    0.84837    0.91124   1.00
H2       0.49914    0.88747    0.93090   1.00
N1       0.53182    0.84395    0.90233   1.00
C6       0.53896    0.80810    0.88794   1.00
C6       0.56078    0.86757    0.89016   1.00
C6       0.57299    0.80873    0.86646   1.00
C6       0.58687    0.84656    0.86788   1.00
H3       0.52060    0.78281    0.89265   1.00
H3       0.56296    0.89831    0.89715   1.00
H3       0.58620    0.78436    0.85139   1.00
H3       0.61306    0.85758    0.85419   1.00
H2       0.54474    0.61228    1.05035   1.00
H2       0.58083    0.65001    1.04875   1.00
N1       0.54029    0.65523    1.09450   1.00
C6       0.52627    0.63078    1.12483   1.00
C6       0.54375    0.69285    1.11150   1.00
C6       0.52152    0.65277    1.15825   1.00
C6       0.53224    0.69091    1.15006   1.00
H3       0.52024    0.59992    1.12192   1.00
H3       0.55348    0.71876    1.09627   1.00
H3       0.51114    0.64205    1.18604   1.00
H3       0.53161    0.71505    1.17035   1.00
C4       0.27085    0.49987    0.99964   1.00
C4       0.22915    0.50013    1.00036   1.00
C3       0.29249    0.52602    0.97610   1.00
C3       0.20748    0.53526    0.99961   1.00
C3       0.29262    0.47385    1.02321   1.00
C3       0.20741    0.46502    1.00097   1.00
C2       0.35518    0.50015    0.99994   1.00
C2       0.14482    0.50015    0.99994   1.00
C3a      0.33401    0.52627    0.97613   1.00
C3       0.16618    0.53519    0.99942   1.00
C3       0.33389    0.47405    1.02332   1.00
C3a      0.16597    0.46482    1.00079   1.00
H1       0.27706    0.54619    0.95733   1.00
H1       0.22250    0.56305    0.99953   1.00
C5       0.35590    0.55443    0.95054   1.00
H1       0.15067    0.56271    0.99889   1.00
H1       0.34944    0.45388    1.04200   1.00
C5       0.14465    0.42643    1.00151   1.00
H1       0.22253    0.43731    1.00044   1.00
H1       0.27770    0.45366    1.04238   1.00
H2       0.15163    0.41124    1.02931   1.00
H2       0.11253    0.43090    1.00086   1.00
N1       0.15605    0.40233    0.96818   1.00
C6       0.19190    0.38794    0.96104   1.00
C6       0.13243    0.39016    0.93922   1.00
C6       0.19127    0.36646    0.92701   1.00
C6       0.15344    0.36788    0.91313   1.00
H3       0.21719    0.39265    0.97940   1.00
H3       0.10169    0.39715    0.93704   1.00
H3       0.21564    0.35139    0.91380   1.00
H3       0.14242    0.35419    0.88694   1.00
H2       0.38772    0.55035    0.95526   1.00
H2       0.34999    0.54875    0.91917   1.00
N1       0.34477    0.59450    0.95971   1.00
C6       0.36922    0.62483    0.97373   1.00
C6       0.30715    0.61150    0.95625   1.00
C6       0.34723    0.65825    0.97848   1.00
C6       0.30909    0.65006    0.96776   1.00
H3       0.40008    0.62192    0.97976   1.00
H3       0.28124    0.59627    0.94652   1.00
H3       0.35795    0.68604    0.98886   1.00
H3       0.28495    0.67035    0.96839   1.00
C4       0.72915    0.49987    1.00036   1.00
C4       0.77085    0.50013    0.99964   1.00
C3       0.70751    0.52602    1.02390   1.00
C3       0.79252    0.53526    1.00039   1.00
C3       0.70738    0.47385    0.97679   1.00
C3       0.79259    0.46502    0.99903   1.00
C2       0.64482    0.50015    1.00006   1.00
C2       0.85518    0.50015    1.00006   1.00
C3a      0.66599    0.52627    1.02387   1.00
C3       0.83382    0.53519    1.00058   1.00
C3       0.66611    0.47405    0.97668   1.00
C3a      0.83403    0.46482    0.99921   1.00
H1       0.72294    0.54619    1.04267   1.00
H1       0.77750    0.56305    1.00047   1.00
C5       0.64410    0.55443    1.04946   1.00
H1       0.84933    0.56271    1.00111   1.00
H1       0.65056    0.45388    0.95800   1.00
C5       0.85535    0.42643    0.99849   1.00
H1       0.77747    0.43731    0.99956   1.00
H1       0.72230    0.45366    0.95762   1.00
H2       0.84837    0.41124    0.97069   1.00
H2       0.88747    0.43090    0.99914   1.00
N1       0.84395    0.40233    1.03182   1.00
C6       0.80810    0.38794    1.03896   1.00
C6       0.86757    0.39016    1.06078   1.00
C6       0.80873    0.36646    1.07299   1.00
C6       0.84656    0.36788    1.08687   1.00
H3       0.78281    0.39265    1.02060   1.00
H3       0.89831    0.39715    1.06296   1.00
H3       0.78436    0.35139    1.08620   1.00
H3       0.85758    0.35419    1.11306   1.00
H2       0.61228    0.55035    1.04474   1.00
H2       0.65001    0.54875    1.08083   1.00
N1       0.65523    0.59450    1.04029   1.00
C6       0.63078    0.62483    1.02627   1.00
C6       0.69285    0.61150    1.04375   1.00
C6       0.65277    0.65825    1.02152   1.00
C6       0.69091    0.65006    1.03224   1.00
H3       0.59992    0.62192    1.02024   1.00
H3       0.71876    0.59627    1.05348   1.00
H3       0.64205    0.68604    1.01114   1.00
H3       0.71505    0.67035    1.03161   1.00
C4       0.49964    0.27085    0.99987   1.00
C4       0.50036    0.22915    1.00013   1.00
C3       0.47610    0.29249    1.02602   1.00
C3       0.49961    0.20748    1.03526   1.00
C3       0.52321    0.29262    0.97385   1.00
C3       0.50097    0.20741    0.96502   1.00
C2       0.49994    0.35518    1.00015   1.00
C2       0.49994    0.14482    1.00015   1.00
C3a      0.47613    0.33401    1.02627   1.00
C3       0.49942    0.16618    1.03519   1.00
C3       0.52332    0.33389    0.97405   1.00
C3a      0.50079    0.16597    0.96482   1.00
H1       0.45733    0.27706    1.04619   1.00
H1       0.49953    0.22250    1.06305   1.00
C5       0.45054    0.35590    1.05443   1.00
H1       0.49889    0.15067    1.06271   1.00
H1       0.54200    0.34944    0.95388   1.00
C5       0.50151    0.14465    0.92643   1.00
H1       0.50044    0.22253    0.93731   1.00
H1       0.54238    0.27770    0.95366   1.00
H2       0.52931    0.15163    0.91124   1.00
H2       0.50086    0.11253    0.93090   1.00
N1       0.46818    0.15605    0.90233   1.00
C6       0.46104    0.19190    0.88794   1.00
C6       0.43922    0.13243    0.89016   1.00
C6       0.42701    0.19127    0.86646   1.00
C6       0.41313    0.15344    0.86788   1.00
H3       0.47940    0.21719    0.89265   1.00
H3       0.43704    0.10169    0.89715   1.00
H3       0.41380    0.21564    0.85139   1.00
H3       0.38694    0.14242    0.85419   1.00
H2       0.45526    0.38772    1.05035   1.00
H2       0.41917    0.34999    1.04875   1.00
N1       0.45971    0.34477    1.09450   1.00
C6       0.47373    0.36922    1.12483   1.00
C6       0.45625    0.30715    1.11150   1.00
C6       0.47848    0.34723    1.15825   1.00
C6       0.46776    0.30909    1.15006   1.00
H3       0.47976    0.40008    1.12192   1.00
H3       0.44652    0.28124    1.09627   1.00
H3       0.48886    0.35795    1.18604   1.00
H3       0.46839    0.28495    1.17035   1.00
C4       0.49987    0.49964    0.77085   1.00
C4       0.50013    0.50036    0.72915   1.00
C3       0.52602    0.47610    0.79249   1.00
C3       0.53526    0.49961    0.70748   1.00
C3       0.47385    0.52321    0.79262   1.00
C3       0.46502    0.50097    0.70741   1.00
C2       0.50015    0.49994    0.85518   1.00
C2       0.50015    0.49994    0.64482   1.00
C3a      0.52627    0.47613    0.83401   1.00
C3       0.53519    0.49942    0.66618   1.00
C3       0.47405    0.52332    0.83389   1.00
C3a      0.46482    0.50079    0.66597   1.00
H1       0.54619    0.45733    0.77706   1.00
H1       0.56305    0.49953    0.72250   1.00
C5       0.55443    0.45054    0.85590   1.00
H1       0.56271    0.49889    0.65067   1.00
H1       0.45388    0.54200    0.84944   1.00
C5       0.42643    0.50151    0.64465   1.00
H1       0.43731    0.50044    0.72253   1.00
H1       0.45366    0.54238    0.77770   1.00
H2       0.41124    0.52931    0.65163   1.00
H2       0.43090    0.50086    0.61253   1.00
N1       0.40233    0.46818    0.65605   1.00
C6       0.38794    0.46104    0.69190   1.00
C6       0.39016    0.43922    0.63243   1.00
C6       0.36646    0.42701    0.69127   1.00
C6       0.36788    0.41313    0.65344   1.00
H3       0.39265    0.47940    0.71719   1.00
H3       0.39715    0.43704    0.60169   1.00
H3       0.35139    0.41380    0.71564   1.00
H3       0.35419    0.38694    0.64242   1.00
H2       0.55035    0.45526    0.88772   1.00
H2       0.54875    0.41917    0.84999   1.00
N1       0.59450    0.45971    0.84477   1.00
C6       0.62483    0.47373    0.86922   1.00
C6       0.61150    0.45625    0.80715   1.00
C6       0.65825    0.47848    0.84723   1.00
C6       0.65006    0.46776    0.80909   1.00
H3       0.62192    0.47976    0.90008   1.00
H3       0.59627    0.44652    0.78124   1.00
H3       0.68604    0.48886    0.85795   1.00
H3       0.67035    0.46839    0.78495   1.00
C4       0.49987    1.00036    0.72915   1.00
C4       0.50013    0.99964    0.77085   1.00
C3       0.52602    1.02390    0.70751   1.00
C3       0.53526    1.00039    0.79252   1.00
C3       0.47385    0.97679    0.70738   1.00
C3       0.46502    0.99903    0.79259   1.00
C2       0.50015    1.00006    0.64482   1.00
C2       0.50015    1.00006    0.85518   1.00
C3a      0.52627    1.02387    0.66599   1.00
C3       0.53519    1.00058    0.83382   1.00
C3       0.47405    0.97668    0.66611   1.00
C3a      0.46482    0.99921    0.83403   1.00
H1       0.54619    1.04267    0.72294   1.00
H1       0.56305    1.00047    0.77750   1.00
C5       0.55443    1.04946    0.64410   1.00
H1       0.56271    1.00111    0.84933   1.00
H1       0.45388    0.95800    0.65056   1.00
C5       0.42643    0.99849    0.85535   1.00
H1       0.43731    0.99956    0.77747   1.00
H1       0.45366    0.95762    0.72230   1.00
H2       0.41124    0.97069    0.84837   1.00
H2       0.43090    0.99914    0.88747   1.00
N1       0.40233    1.03182    0.84395   1.00
C6       0.38794    1.03896    0.80810   1.00
C6       0.39016    1.06078    0.86757   1.00
C6       0.36646    1.07299    0.80873   1.00
C6       0.36788    1.08687    0.84656   1.00
H3       0.39265    1.02060    0.78281   1.00
H3       0.39715    1.06296    0.89831   1.00
H3       0.35139    1.08620    0.78436   1.00
H3       0.35419    1.11306    0.85758   1.00
H2       0.55035    1.04474    0.61228   1.00
H2       0.54875    1.08083    0.65001   1.00
N1       0.59450    1.04029    0.65523   1.00
C6       0.62483    1.02627    0.63078   1.00
C6       0.61150    1.04375    0.69285   1.00
C6       0.65825    1.02152    0.65277   1.00
C6       0.65006    1.03224    0.69091   1.00
H3       0.62192    1.02024    0.59992   1.00
H3       0.59627    1.05348    0.71876   1.00
H3       0.68604    1.01114    0.64205   1.00
H3       0.67035    1.03161    0.71505   1.00
C4       0.50036    1.22915    0.49987   1.00
C4       0.49964    1.27085    0.50013   1.00
C3       0.52390    1.20751    0.52602   1.00
C3       0.50039    1.29252    0.53526   1.00
C3       0.47679    1.20738    0.47385   1.00
C3       0.49903    1.29259    0.46502   1.00
C2       0.50006    1.14482    0.50015   1.00
C2       0.50006    1.35518    0.50015   1.00
C3a      0.52387    1.16599    0.52627   1.00
C3       0.50058    1.33382    0.53519   1.00
C3       0.47668    1.16611    0.47405   1.00
C3a      0.49921    1.33403    0.46482   1.00
H1       0.54267    1.22294    0.54619   1.00
H1       0.50047    1.27750    0.56305   1.00
C5       0.54946    1.14410    0.55443   1.00
H1       0.50111    1.34933    0.56271   1.00
H1       0.45800    1.15056    0.45388   1.00
C5       0.49849    1.35535    0.42643   1.00
H1       0.49956    1.27747    0.43731   1.00
H1       0.45762    1.22230    0.45366   1.00
H2       0.47069    1.34837    0.41124   1.00
H2       0.49914    1.38747    0.43090   1.00
N1       0.53182    1.34395    0.40233   1.00
C6       0.53896    1.30810    0.38794   1.00
C6       0.56078    1.36757    0.39016   1.00
C6       0.57299    1.30873    0.36646   1.00
C6       0.58687    1.34656    0.36788   1.00
H3       0.52060    1.28281    0.39265   1.00
H3       0.56296    1.39831    0.39715   1.00
H3       0.58620    1.28436    0.35139   1.00
H3       0.61306    1.35758    0.35419   1.00
H2       0.54474    1.11228    0.55035   1.00
H2       0.58083    1.15001    0.54875   1.00
N1       0.54029    1.15523    0.59450   1.00
C6       0.52627    1.13078    0.62483   1.00
C6       0.54375    1.19285    0.61150   1.00
C6       0.52152    1.15277    0.65825   1.00
C6       0.53224    1.19091    0.65006   1.00
H3       0.52024    1.09992    0.62192   1.00
H3       0.55348    1.21876    0.59627   1.00
H3       0.51114    1.14205    0.68604   1.00
H3       0.53161    1.21505    0.67035   1.00
C4       0.27085    0.99987    0.49964   1.00
C4       0.22915    1.00013    0.50036   1.00
C3       0.29249    1.02602    0.47610   1.00
C3       0.20748    1.03526    0.49961   1.00
C3       0.29262    0.97385    0.52321   1.00
C3       0.20741    0.96502    0.50097   1.00
C2       0.35518    1.00015    0.49994   1.00
C2       0.14482    1.00015    0.49994   1.00
C3a      0.33401    1.02627    0.47613   1.00
C3       0.16618    1.03519    0.49942   1.00
C3       0.33389    0.97405    0.52332   1.00
C3a      0.16597    0.96482    0.50079   1.00
H1       0.27706    1.04619    0.45733   1.00
H1       0.22250    1.06305    0.49953   1.00
C5       0.35590    1.05443    0.45054   1.00
H1       0.15067    1.06271    0.49889   1.00
H1       0.34944    0.95388    0.54200   1.00
C5       0.14465    0.92643    0.50151   1.00
H1       0.22253    0.93731    0.50044   1.00
H1       0.27770    0.95366    0.54238   1.00
H2       0.15163    0.91124    0.52931   1.00
H2       0.11253    0.93090    0.50086   1.00
N1       0.15605    0.90233    0.46818   1.00
C6       0.19190    0.88794    0.46104   1.00
C6       0.13243    0.89016    0.43922   1.00
C6       0.19127    0.86646    0.42701   1.00
C6       0.15344    0.86788    0.41313   1.00
H3       0.21719    0.89265    0.47940   1.00
H3       0.10169    0.89715    0.43704   1.00
H3       0.21564    0.85139    0.41380   1.00
H3       0.14242    0.85419    0.38694   1.00
H2       0.38772    1.05035    0.45526   1.00
H2       0.34999    1.04875    0.41917   1.00
N1       0.34477    1.09450    0.45971   1.00
C6       0.36922    1.12483    0.47373   1.00
C6       0.30715    1.11150    0.45625   1.00
C6       0.34723    1.15825    0.47848   1.00
C6       0.30909    1.15006    0.46776   1.00
H3       0.40008    1.12192    0.47976   1.00
H3       0.28124    1.09627    0.44652   1.00
H3       0.35795    1.18604    0.48886   1.00
H3       0.28495    1.17035    0.46839   1.00
C4       0.72915    0.99987    0.50036   1.00
C4       0.77085    1.00013    0.49964   1.00
C3       0.70751    1.02602    0.52390   1.00
C3       0.79252    1.03526    0.50039   1.00
C3       0.70738    0.97385    0.47679   1.00
C3       0.79259    0.96502    0.49903   1.00
C2       0.64482    1.00015    0.50006   1.00
C2       0.85518    1.00015    0.50006   1.00
C3a      0.66599    1.02627    0.52387   1.00
C3       0.83382    1.03519    0.50058   1.00
C3       0.66611    0.97405    0.47668   1.00
C3a      0.83403    0.96482    0.49921   1.00
H1       0.72294    1.04619    0.54267   1.00
H1       0.77750    1.06305    0.50047   1.00
C5       0.64410    1.05443    0.54946   1.00
H1       0.84933    1.06271    0.50111   1.00
H1       0.65056    0.95388    0.45800   1.00
C5       0.85535    0.92643    0.49849   1.00
H1       0.77747    0.93731    0.49956   1.00
H1       0.72230    0.95366    0.45762   1.00
H2       0.84837    0.91124    0.47069   1.00
H2       0.88747    0.93090    0.49914   1.00
N1       0.84395    0.90233    0.53182   1.00
C6       0.80810    0.88794    0.53896   1.00
C6       0.86757    0.89016    0.56078   1.00
C6       0.80873    0.86646    0.57299   1.00
C6       0.84656    0.86788    0.58687   1.00
H3       0.78281    0.89265    0.52060   1.00
H3       0.89831    0.89715    0.56296   1.00
H3       0.78436    0.85139    0.58620   1.00
H3       0.85758    0.85419    0.61306   1.00
H2       0.61228    1.05035    0.54474   1.00
H2       0.65001    1.04875    0.58083   1.00
N1       0.65523    1.09450    0.54029   1.00
C6       0.63078    1.12483    0.52627   1.00
C6       0.69285    1.11150    0.54375   1.00
C6       0.65277    1.15825    0.52152   1.00
C6       0.69091    1.15006    0.53224   1.00
H3       0.59992    1.12192    0.52024   1.00
H3       0.71876    1.09627    0.55348   1.00
H3       0.64205    1.18604    0.51114   1.00
H3       0.71505    1.17035    0.53161   1.00
C4       0.49964    0.77085    0.49987   1.00
C4       0.50036    0.72915    0.50013   1.00
C3       0.47610    0.79249    0.52602   1.00
C3       0.49961    0.70748    0.53526   1.00
C3       0.52321    0.79262    0.47385   1.00
C3       0.50097    0.70741    0.46502   1.00
C2       0.49994    0.85518    0.50015   1.00
C2       0.49994    0.64482    0.50015   1.00
C3a      0.47613    0.83401    0.52627   1.00
C3       0.49942    0.66618    0.53519   1.00
C3       0.52332    0.83389    0.47405   1.00
C3a      0.50079    0.66597    0.46482   1.00
H1       0.45733    0.77706    0.54619   1.00
H1       0.49953    0.72250    0.56305   1.00
C5       0.45054    0.85590    0.55443   1.00
H1       0.49889    0.65067    0.56271   1.00
H1       0.54200    0.84944    0.45388   1.00
C5       0.50151    0.64465    0.42643   1.00
H1       0.50044    0.72253    0.43731   1.00
H1       0.54238    0.77770    0.45366   1.00
H2       0.52931    0.65163    0.41124   1.00
H2       0.50086    0.61253    0.43090   1.00
N1       0.46818    0.65605    0.40233   1.00
C6       0.46104    0.69190    0.38794   1.00
C6       0.43922    0.63243    0.39016   1.00
C6       0.42701    0.69127    0.36646   1.00
C6       0.41313    0.65344    0.36788   1.00
H3       0.47940    0.71719    0.39265   1.00
H3       0.43704    0.60169    0.39715   1.00
H3       0.41380    0.71564    0.35139   1.00
H3       0.38694    0.64242    0.35419   1.00
H2       0.45526    0.88772    0.55035   1.00
H2       0.41917    0.84999    0.54875   1.00
N1       0.45971    0.84477    0.59450   1.00
C6       0.47373    0.86922    0.62483   1.00
C6       0.45625    0.80715    0.61150   1.00
C6       0.47848    0.84723    0.65825   1.00
C6       0.46776    0.80909    0.65006   1.00
H3       0.47976    0.90008    0.62192   1.00
H3       0.44652    0.78124    0.59627   1.00
H3       0.48886    0.85795    0.68604   1.00
H3       0.46839    0.78495    0.67035   1.00
C4       0.49987    0.99964    0.27085   1.00
C4       0.50013    1.00036    0.22915   1.00
C3       0.52602    0.97610    0.29249   1.00
C3       0.53526    0.99961    0.20748   1.00
C3       0.47385    1.02321    0.29262   1.00
C3       0.46502    1.00097    0.20741   1.00
C2       0.50015    0.99994    0.35518   1.00
C2       0.50015    0.99994    0.14482   1.00
C3a      0.52627    0.97613    0.33401   1.00
C3       0.53519    0.99942    0.16618   1.00
C3       0.47405    1.02332    0.33389   1.00
C3a      0.46482    1.00079    0.16597   1.00
H1       0.54619    0.95733    0.27706   1.00
H1       0.56305    0.99953    0.22250   1.00
C5       0.55443    0.95054    0.35590   1.00
H1       0.56271    0.99889    0.15067   1.00
H1       0.45388    1.04200    0.34944   1.00
C5       0.42643    1.00151    0.14465   1.00
H1       0.43731    1.00044    0.22253   1.00
H1       0.45366    1.04238    0.27770   1.00
H2       0.41124    1.02931    0.15163   1.00
H2       0.43090    1.00086    0.11253   1.00
N1       0.40233    0.96818    0.15605   1.00
C6       0.38794    0.96104    0.19190   1.00
C6       0.39016    0.93922    0.13243   1.00
C6       0.36646    0.92701    0.19127   1.00
C6       0.36788    0.91313    0.15344   1.00
H3       0.39265    0.97940    0.21719   1.00
H3       0.39715    0.93704    0.10169   1.00
H3       0.35139    0.91380    0.21564   1.00
H3       0.35419    0.88694    0.14242   1.00
H2       0.55035    0.95526    0.38772   1.00
H2       0.54875    0.91917    0.34999   1.00
N1       0.59450    0.95971    0.34477   1.00
C6       0.62483    0.97373    0.36922   1.00
C6       0.61150    0.95625    0.30715   1.00
C6       0.65825    0.97848    0.34723   1.00
C6       0.65006    0.96776    0.30909   1.00
H3       0.62192    0.97976    0.40008   1.00
H3       0.59627    0.94652    0.28124   1.00
H3       0.68604    0.98886    0.35795   1.00
H3       0.67035    0.96839    0.28495   1.00
C4       0.99987    0.50036    0.72915   1.00
C4       1.00013    0.49964    0.77085   1.00
C3       1.02602    0.52390    0.70751   1.00
C3       1.03526    0.50039    0.79252   1.00
C3       0.97385    0.47679    0.70738   1.00
C3       0.96502    0.49903    0.79259   1.00
C2       1.00015    0.50006    0.64482   1.00
C2       1.00015    0.50006    0.85518   1.00
C3a      1.02627    0.52387    0.66599   1.00
C3       1.03519    0.50058    0.83382   1.00
C3       0.97405    0.47668    0.66611   1.00
C3a      0.96482    0.49921    0.83403   1.00
H1       1.04619    0.54267    0.72294   1.00
H1       1.06305    0.50047    0.77750   1.00
C5       1.05443    0.54946    0.64410   1.00
H1       1.06271    0.50111    0.84933   1.00
H1       0.95388    0.45800    0.65056   1.00
C5       0.92643    0.49849    0.85535   1.00
H1       0.93731    0.49956    0.77747   1.00
H1       0.95366    0.45762    0.72230   1.00
H2       0.91124    0.47069    0.84837   1.00
H2       0.93090    0.49914    0.88747   1.00
N1       0.90233    0.53182    0.84395   1.00
C6       0.88794    0.53896    0.80810   1.00
C6       0.89016    0.56078    0.86757   1.00
C6       0.86646    0.57299    0.80873   1.00
C6       0.86788    0.58687    0.84656   1.00
H3       0.89265    0.52060    0.78281   1.00
H3       0.89715    0.56296    0.89831   1.00
H3       0.85139    0.58620    0.78436   1.00
H3       0.85419    0.61306    0.85758   1.00
H2       1.05035    0.54474    0.61228   1.00
H2       1.04875    0.58083    0.65001   1.00
N1       1.09450    0.54029    0.65523   1.00
C6       1.12483    0.52627    0.63078   1.00
C6       1.11150    0.54375    0.69285   1.00
C6       1.15825    0.52152    0.65277   1.00
C6       1.15006    0.53224    0.69091   1.00
H3       1.12192    0.52024    0.59992   1.00
H3       1.09627    0.55348    0.71876   1.00
H3       1.18604    0.51114    0.64205   1.00
H3       1.17035    0.53161    0.71505   1.00
C4       1.00036    0.72915    0.49987   1.00
C4       0.99964    0.77085    0.50013   1.00
C3       1.02390    0.70751    0.52602   1.00
C3       1.00039    0.79252    0.53526   1.00
C3       0.97679    0.70738    0.47385   1.00
C3       0.99903    0.79259    0.46502   1.00
C2       1.00006    0.64482    0.50015   1.00
C2       1.00006    0.85518    0.50015   1.00
C3a      1.02387    0.66599    0.52627   1.00
C3       1.00058    0.83382    0.53519   1.00
C3       0.97668    0.66611    0.47405   1.00
C3a      0.99921    0.83403    0.46482   1.00
H1       1.04267    0.72294    0.54619   1.00
H1       1.00047    0.77750    0.56305   1.00
C5       1.04946    0.64410    0.55443   1.00
H1       1.00111    0.84933    0.56271   1.00
H1       0.95800    0.65056    0.45388   1.00
C5       0.99849    0.85535    0.42643   1.00
H1       0.99956    0.77747    0.43731   1.00
H1       0.95762    0.72230    0.45366   1.00
H2       0.97069    0.84837    0.41124   1.00
H2       0.99914    0.88747    0.43090   1.00
N1       1.03182    0.84395    0.40233   1.00
C6       1.03896    0.80810    0.38794   1.00
C6       1.06078    0.86757    0.39016   1.00
C6       1.07299    0.80873    0.36646   1.00
C6       1.08687    0.84656    0.36788   1.00
H3       1.02060    0.78281    0.39265   1.00
H3       1.06296    0.89831    0.39715   1.00
H3       1.08620    0.78436    0.35139   1.00
H3       1.11306    0.85758    0.35419   1.00
H2       1.04474    0.61228    0.55035   1.00
H2       1.08083    0.65001    0.54875   1.00
N1       1.04029    0.65523    0.59450   1.00
C6       1.02627    0.63078    0.62483   1.00
C6       1.04375    0.69285    0.61150   1.00
C6       1.02152    0.65277    0.65825   1.00
C6       1.03224    0.69091    0.65006   1.00
H3       1.02024    0.59992    0.62192   1.00
H3       1.05348    0.71876    0.59627   1.00
H3       1.01114    0.64205    0.68604   1.00
H3       1.03161    0.71505    0.67035   1.00
C4       0.77085    0.49987    0.49964   1.00
C4       0.72915    0.50013    0.50036   1.00
C3       0.79249    0.52602    0.47610   1.00
C3       0.70748    0.53526    0.49961   1.00
C3       0.79262    0.47385    0.52321   1.00
C3       0.70741    0.46502    0.50097   1.00
C2       0.85518    0.50015    0.49994   1.00
C2       0.64482    0.50015    0.49994   1.00
C3a      0.83401    0.52627    0.47613   1.00
C3       0.66618    0.53519    0.49942   1.00
C3       0.83389    0.47405    0.52332   1.00
C3a      0.66597    0.46482    0.50079   1.00
H1       0.77706    0.54619    0.45733   1.00
H1       0.72250    0.56305    0.49953   1.00
C5       0.85590    0.55443    0.45054   1.00
H1       0.65067    0.56271    0.49889   1.00
H1       0.84944    0.45388    0.54200   1.00
C5       0.64465    0.42643    0.50151   1.00
H1       0.72253    0.43731    0.50044   1.00
H1       0.77770    0.45366    0.54238   1.00
H2       0.65163    0.41124    0.52931   1.00
H2       0.61253    0.43090    0.50086   1.00
N1       0.65605    0.40233    0.46818   1.00
C6       0.69190    0.38794    0.46104   1.00
C6       0.63243    0.39016    0.43922   1.00
C6       0.69127    0.36646    0.42701   1.00
C6       0.65344    0.36788    0.41313   1.00
H3       0.71719    0.39265    0.47940   1.00
H3       0.60169    0.39715    0.43704   1.00
H3       0.71564    0.35139    0.41380   1.00
H3       0.64242    0.35419    0.38694   1.00
H2       0.88772    0.55035    0.45526   1.00
H2       0.84999    0.54875    0.41917   1.00
N1       0.84477    0.59450    0.45971   1.00
C6       0.86922    0.62483    0.47373   1.00
C6       0.80715    0.61150    0.45625   1.00
C6       0.84723    0.65825    0.47848   1.00
C6       0.80909    0.65006    0.46776   1.00
H3       0.90008    0.62192    0.47976   1.00
H3       0.78124    0.59627    0.44652   1.00
H3       0.85795    0.68604    0.48886   1.00
H3       0.78495    0.67035    0.46839   1.00
C4       1.22915    0.49987    0.50036   1.00
C4       1.27085    0.50013    0.49964   1.00
C3       1.20751    0.52602    0.52390   1.00
C3       1.29252    0.53526    0.50039   1.00
C3       1.20738    0.47385    0.47679   1.00
C3       1.29259    0.46502    0.49903   1.00
C2       1.14482    0.50015    0.50006   1.00
C2       1.35518    0.50015    0.50006   1.00
C3a      1.16599    0.52627    0.52387   1.00
C3       1.33382    0.53519    0.50058   1.00
C3       1.16611    0.47405    0.47668   1.00
C3a      1.33403    0.46482    0.49921   1.00
H1       1.22294    0.54619    0.54267   1.00
H1       1.27750    0.56305    0.50047   1.00
C5       1.14410    0.55443    0.54946   1.00
H1       1.34933    0.56271    0.50111   1.00
H1       1.15056    0.45388    0.45800   1.00
C5       1.35535    0.42643    0.49849   1.00
H1       1.27747    0.43731    0.49956   1.00
H1       1.22230    0.45366    0.45762   1.00
H2       1.34837    0.41124    0.47069   1.00
H2       1.38747    0.43090    0.49914   1.00
N1       1.34395    0.40233    0.53182   1.00
C6       1.30810    0.38794    0.53896   1.00
C6       1.36757    0.39016    0.56078   1.00
C6       1.30873    0.36646    0.57299   1.00
C6       1.34656    0.36788    0.58687   1.00
H3       1.28281    0.39265    0.52060   1.00
H3       1.39831    0.39715    0.56296   1.00
H3       1.28436    0.35139    0.58620   1.00
H3       1.35758    0.35419    0.61306   1.00
H2       1.11228    0.55035    0.54474   1.00
H2       1.15001    0.54875    0.58083   1.00
N1       1.15523    0.59450    0.54029   1.00
C6       1.13078    0.62483    0.52627   1.00
C6       1.19285    0.61150    0.54375   1.00
C6       1.15277    0.65825    0.52152   1.00
C6       1.19091    0.65006    0.53224   1.00
H3       1.09992    0.62192    0.52024   1.00
H3       1.21876    0.59627    0.55348   1.00
H3       1.14205    0.68604    0.51114   1.00
H3       1.21505    0.67035    0.53161   1.00
C4       0.99964    0.27085    0.49987   1.00
C4       1.00036    0.22915    0.50013   1.00
C3       0.97610    0.29249    0.52602   1.00
C3       0.99961    0.20748    0.53526   1.00
C3       1.02321    0.29262    0.47385   1.00
C3       1.00097    0.20741    0.46502   1.00
C2       0.99994    0.35518    0.50015   1.00
C2       0.99994    0.14482    0.50015   1.00
C3a      0.97613    0.33401    0.52627   1.00
C3       0.99942    0.16618    0.53519   1.00
C3       1.02332    0.33389    0.47405   1.00
C3a      1.00079    0.16597    0.46482   1.00
H1       0.95733    0.27706    0.54619   1.00
H1       0.99953    0.22250    0.56305   1.00
C5       0.95054    0.35590    0.55443   1.00
H1       0.99889    0.15067    0.56271   1.00
H1       1.04200    0.34944    0.45388   1.00
C5       1.00151    0.14465    0.42643   1.00
H1       1.00044    0.22253    0.43731   1.00
H1       1.04238    0.27770    0.45366   1.00
H2       1.02931    0.15163    0.41124   1.00
H2       1.00086    0.11253    0.43090   1.00
N1       0.96818    0.15605    0.40233   1.00
C6       0.96104    0.19190    0.38794   1.00
C6       0.93922    0.13243    0.39016   1.00
C6       0.92701    0.19127    0.36646   1.00
C6       0.91313    0.15344    0.36788   1.00
H3       0.97940    0.21719    0.39265   1.00
H3       0.93704    0.10169    0.39715   1.00
H3       0.91380    0.21564    0.35139   1.00
H3       0.88694    0.14242    0.35419   1.00
H2       0.95526    0.38772    0.55035   1.00
H2       0.91917    0.34999    0.54875   1.00
N1       0.95971    0.34477    0.59450   1.00
C6       0.97373    0.36922    0.62483   1.00
C6       0.95625    0.30715    0.61150   1.00
C6       0.97848    0.34723    0.65825   1.00
C6       0.96776    0.30909    0.65006   1.00
H3       0.97976    0.40008    0.62192   1.00
H3       0.94652    0.28124    0.59627   1.00
H3       0.98886    0.35795    0.68604   1.00
H3       0.96839    0.28495    0.67035   1.00
C4       0.99987    0.49964    0.27085   1.00
C4       1.00013    0.50036    0.22915   1.00
C3       1.02602    0.47610    0.29249   1.00
C3       1.03526    0.49961    0.20748   1.00
C3       0.97385    0.52321    0.29262   1.00
C3       0.96502    0.50097    0.20741   1.00
C2       1.00015    0.49994    0.35518   1.00
C2       1.00015    0.49994    0.14482   1.00
C3a      1.02627    0.47613    0.33401   1.00
C3       1.03519    0.49942    0.16618   1.00
C3       0.97405    0.52332    0.33389   1.00
C3a      0.96482    0.50079    0.16597   1.00
H1       1.04619    0.45733    0.27706   1.00
H1       1.06305    0.49953    0.22250   1.00
C5       1.05443    0.45054    0.35590   1.00
H1       1.06271    0.49889    0.15067   1.00
H1       0.95388    0.54200    0.34944   1.00
C5       0.92643    0.50151    0.14465   1.00
H1       0.93731    0.50044    0.22253   1.00
H1       0.95366    0.54238    0.27770   1.00
H2       0.91124    0.52931    0.15163   1.00
H2       0.93090    0.50086    0.11253   1.00
N1       0.90233    0.46818    0.15605   1.00
C6       0.88794    0.46104    0.19190   1.00
C6       0.89016    0.43922    0.13243   1.00
C6       0.86646    0.42701    0.19127   1.00
C6       0.86788    0.41313    0.15344   1.00
H3       0.89265    0.47940    0.21719   1.00
H3       0.89715    0.43704    0.10169   1.00
H3       0.85139    0.41380    0.21564   1.00
H3       0.85419    0.38694    0.14242   1.00
H2       1.05035    0.45526    0.38772   1.00
H2       1.04875    0.41917    0.34999   1.00
N1       1.09450    0.45971    0.34477   1.00
C6       1.12483    0.47373    0.36922   1.00
C6       1.11150    0.45625    0.30715   1.00
C6       1.15825    0.47848    0.34723   1.00
C6       1.15006    0.46776    0.30909   1.00
H3       1.12192    0.47976    0.40008   1.00
H3       1.09627    0.44652    0.28124   1.00
H3       1.18604    0.48886    0.35795   1.00
H3       1.17035    0.46839    0.28495   1.00
