data_IRMOF10_SG202_interpen_Ligand1lp_label_a.

_audit_creation_method             'generated by an auxiliary program of Tobunporous'

_symmetry_space_group_name_H-M     'P 1'
_symmetry_Int_Tables_number        1
_symmetry_cell_setting             triclinic

_cell_length_a                    34.2800
_cell_length_b                    34.2800
_cell_length_c                    34.2800
_cell_angle_alpha                 90.0000
_cell_angle_beta                  90.0000
_cell_angle_gamma                 90.0000

loop_
_atom_site_label
_atom_site_fract_x
_atom_site_fract_y
_atom_site_fract_z
_atom_site_occupancy
O1       0.75000    0.75000    0.75000   1.00
Zn1      0.71720    0.78280    0.78280   1.00
Zn1      0.78280    0.71720    0.78280   1.00
Zn1      0.78280    0.78280    0.71720   1.00
Zn1      0.71720    0.71720    0.71720   1.00
O2       0.72650    0.77350    0.83820   1.00
O2       0.72650    0.83820    0.77350   1.00
O2       0.66180    0.77350    0.77350   1.00
O2       0.77350    0.72650    0.83820   1.00
O2       0.83820    0.72650    0.77350   1.00
O2       0.77350    0.66180    0.77350   1.00
O2       0.77350    0.83820    0.72650   1.00
O2       0.83820    0.77350    0.72650   1.00
O2       0.77350    0.77350    0.66180   1.00
O2       0.66180    0.72650    0.72650   1.00
O2       0.72650    0.66180    0.72650   1.00
O2       0.72650    0.72650    0.66180   1.00
C1       0.75000    0.75000    0.85520   1.00
C1       0.75000    0.85520    0.75000   1.00
C1       0.64480    0.75000    0.75000   1.00
C1       0.85520    0.75000    0.75000   1.00
C1       0.75000    0.64480    0.75000   1.00
C1       0.75000    0.75000    0.64480   1.00
O1       0.25000    0.25000    0.75000   1.00
Zn1      0.21720    0.28280    0.78280   1.00
Zn1      0.28280    0.21720    0.78280   1.00
Zn1      0.28280    0.28280    0.71720   1.00
Zn1      0.21720    0.21720    0.71720   1.00
O2       0.22650    0.27350    0.83820   1.00
O2       0.22650    0.33820    0.77350   1.00
O2       0.16180    0.27350    0.77350   1.00
O2       0.27350    0.22650    0.83820   1.00
O2       0.33820    0.22650    0.77350   1.00
O2       0.27350    0.16180    0.77350   1.00
O2       0.27350    0.33820    0.72650   1.00
O2       0.33820    0.27350    0.72650   1.00
O2       0.27350    0.27350    0.66180   1.00
O2       0.16180    0.22650    0.72650   1.00
O2       0.22650    0.16180    0.72650   1.00
O2       0.22650    0.22650    0.66180   1.00
C1       0.25000    0.25000    0.85520   1.00
C1       0.25000    0.35520    0.75000   1.00
C1       0.14480    0.25000    0.75000   1.00
C1       0.35520    0.25000    0.75000   1.00
C1       0.25000    0.14480    0.75000   1.00
C1       0.25000    0.25000    0.64480   1.00
O1       0.25000    0.75000    0.25000   1.00
Zn1      0.21720    0.78280    0.28280   1.00
Zn1      0.28280    0.71720    0.28280   1.00
Zn1      0.28280    0.78280    0.21720   1.00
Zn1      0.21720    0.71720    0.21720   1.00
O2       0.22650    0.77350    0.33820   1.00
O2       0.22650    0.83820    0.27350   1.00
O2       0.16180    0.77350    0.27350   1.00
O2       0.27350    0.72650    0.33820   1.00
O2       0.33820    0.72650    0.27350   1.00
O2       0.27350    0.66180    0.27350   1.00
O2       0.27350    0.83820    0.22650   1.00
O2       0.33820    0.77350    0.22650   1.00
O2       0.27350    0.77350    0.16180   1.00
O2       0.16180    0.72650    0.22650   1.00
O2       0.22650    0.66180    0.22650   1.00
O2       0.22650    0.72650    0.16180   1.00
C1       0.25000    0.75000    0.35520   1.00
C1       0.25000    0.85520    0.25000   1.00
C1       0.14480    0.75000    0.25000   1.00
C1       0.35520    0.75000    0.25000   1.00
C1       0.25000    0.64480    0.25000   1.00
C1       0.25000    0.75000    0.14480   1.00
O1       0.75000    0.25000    0.25000   1.00
Zn1      0.71720    0.28280    0.28280   1.00
Zn1      0.78280    0.21720    0.28280   1.00
Zn1      0.78280    0.28280    0.21720   1.00
Zn1      0.71720    0.21720    0.21720   1.00
O2       0.72650    0.27350    0.33820   1.00
O2       0.72650    0.33820    0.27350   1.00
O2       0.66180    0.27350    0.27350   1.00
O2       0.77350    0.22650    0.33820   1.00
O2       0.83820    0.22650    0.27350   1.00
O2       0.77350    0.16180    0.27350   1.00
O2       0.77350    0.33820    0.22650   1.00
O2       0.83820    0.27350    0.22650   1.00
O2       0.77350    0.27350    0.16180   1.00
O2       0.66180    0.22650    0.22650   1.00
O2       0.72650    0.16180    0.22650   1.00
O2       0.72650    0.22650    0.16180   1.00
C1       0.75000    0.25000    0.35520   1.00
C1       0.75000    0.35520    0.25000   1.00
C1       0.64480    0.25000    0.25000   1.00
C1       0.85520    0.25000    0.25000   1.00
C1       0.75000    0.14480    0.25000   1.00
C1       0.75000    0.25000    0.14480   1.00
O1       0.25000    0.25000    0.25000   1.00
Zn1      0.28280    0.21720    0.21720   1.00
Zn1      0.21720    0.28280    0.21720   1.00
Zn1      0.21720    0.21720    0.28280   1.00
Zn1      0.28280    0.28280    0.28280   1.00
O2       0.27350    0.22650    0.16180   1.00
O2       0.27350    0.16180    0.22650   1.00
O2       0.33820    0.22650    0.22650   1.00
O2       0.22650    0.27350    0.16180   1.00
O2       0.16180    0.27350    0.22650   1.00
O2       0.22650    0.33820    0.22650   1.00
O2       0.22650    0.16180    0.27350   1.00
O2       0.16180    0.22650    0.27350   1.00
O2       0.22650    0.22650    0.33820   1.00
O2       0.33820    0.27350    0.27350   1.00
O2       0.27350    0.33820    0.27350   1.00
O2       0.27350    0.27350    0.33820   1.00
C1       0.25000    0.25000    0.14480   1.00
C1       0.25000    0.14480    0.25000   1.00
C1       0.35520    0.25000    0.25000   1.00
C1       0.14480    0.25000    0.25000   1.00
C1       0.25000    0.35520    0.25000   1.00
C1       0.25000    0.25000    0.35520   1.00
O1       0.75000    0.75000    0.25000   1.00
Zn1      0.78280    0.71720    0.21720   1.00
Zn1      0.71720    0.78280    0.21720   1.00
Zn1      0.71720    0.71720    0.28280   1.00
Zn1      0.78280    0.78280    0.28280   1.00
O2       0.77350    0.72650    0.16180   1.00
O2       0.77350    0.66180    0.22650   1.00
O2       0.83820    0.72650    0.22650   1.00
O2       0.72650    0.77350    0.16180   1.00
O2       0.66180    0.77350    0.22650   1.00
O2       0.72650    0.83820    0.22650   1.00
O2       0.72650    0.66180    0.27350   1.00
O2       0.66180    0.72650    0.27350   1.00
O2       0.72650    0.72650    0.33820   1.00
O2       0.83820    0.77350    0.27350   1.00
O2       0.77350    0.83820    0.27350   1.00
O2       0.77350    0.77350    0.33820   1.00
C1       0.75000    0.75000    0.14480   1.00
C1       0.75000    0.64480    0.25000   1.00
C1       0.85520    0.75000    0.25000   1.00
C1       0.64480    0.75000    0.25000   1.00
C1       0.75000    0.85520    0.25000   1.00
C1       0.75000    0.75000    0.35520   1.00
O1       0.75000    0.25000    0.75000   1.00
Zn1      0.78280    0.21720    0.71720   1.00
Zn1      0.71720    0.28280    0.71720   1.00
Zn1      0.71720    0.21720    0.78280   1.00
Zn1      0.78280    0.28280    0.78280   1.00
O2       0.77350    0.22650    0.66180   1.00
O2       0.77350    0.16180    0.72650   1.00
O2       0.83820    0.22650    0.72650   1.00
O2       0.72650    0.27350    0.66180   1.00
O2       0.66180    0.27350    0.72650   1.00
O2       0.72650    0.33820    0.72650   1.00
O2       0.72650    0.16180    0.77350   1.00
O2       0.66180    0.22650    0.77350   1.00
O2       0.72650    0.22650    0.83820   1.00
O2       0.83820    0.27350    0.77350   1.00
O2       0.77350    0.33820    0.77350   1.00
O2       0.77350    0.27350    0.83820   1.00
C1       0.75000    0.25000    0.64480   1.00
C1       0.75000    0.14480    0.75000   1.00
C1       0.85520    0.25000    0.75000   1.00
C1       0.64480    0.25000    0.75000   1.00
C1       0.75000    0.35520    0.75000   1.00
C1       0.75000    0.25000    0.85520   1.00
O1       0.25000    0.75000    0.75000   1.00
Zn1      0.28280    0.71720    0.71720   1.00
Zn1      0.21720    0.78280    0.71720   1.00
Zn1      0.21720    0.71720    0.78280   1.00
Zn1      0.28280    0.78280    0.78280   1.00
O2       0.27350    0.72650    0.66180   1.00
O2       0.27350    0.66180    0.72650   1.00
O2       0.33820    0.72650    0.72650   1.00
O2       0.22650    0.77350    0.66180   1.00
O2       0.16180    0.77350    0.72650   1.00
O2       0.22650    0.83820    0.72650   1.00
O2       0.22650    0.66180    0.77350   1.00
O2       0.16180    0.72650    0.77350   1.00
O2       0.22650    0.72650    0.83820   1.00
O2       0.33820    0.77350    0.77350   1.00
O2       0.27350    0.83820    0.77350   1.00
O2       0.27350    0.77350    0.83820   1.00
C1       0.25000    0.75000    0.64480   1.00
C1       0.25000    0.64480    0.75000   1.00
C1       0.35520    0.75000    0.75000   1.00
C1       0.14480    0.75000    0.75000   1.00
C1       0.25000    0.85520    0.75000   1.00
C1       0.25000    0.75000    0.85520   1.00
O1       1.00000    1.00000    1.00000   1.00
Zn1      0.96720    1.03280    1.03280   1.00
Zn1      1.03280    0.96720    1.03280   1.00
Zn1      1.03280    1.03280    0.96720   1.00
Zn1      0.96720    0.96720    0.96720   1.00
O2       0.97650    1.02350    1.08820   1.00
O2       0.97650    1.08820    1.02350   1.00
O2       0.91180    1.02350    1.02350   1.00
O2       1.02350    0.97650    1.08820   1.00
O2       1.08820    0.97650    1.02350   1.00
O2       1.02350    0.91180    1.02350   1.00
O2       1.02350    1.08820    0.97650   1.00
O2       1.08820    1.02350    0.97650   1.00
O2       1.02350    1.02350    0.91180   1.00
O2       0.91180    0.97650    0.97650   1.00
O2       0.97650    0.91180    0.97650   1.00
O2       0.97650    0.97650    0.91180   1.00
C1       1.00000    1.00000    1.10520   1.00
C1       1.00000    1.10520    1.00000   1.00
C1       0.89480    1.00000    1.00000   1.00
C1       1.10520    1.00000    1.00000   1.00
C1       1.00000    0.89480    1.00000   1.00
C1       1.00000    1.00000    0.89480   1.00
O1       0.50000    0.50000    1.00000   1.00
Zn1      0.46720    0.53280    1.03280   1.00
Zn1      0.53280    0.46720    1.03280   1.00
Zn1      0.53280    0.53280    0.96720   1.00
Zn1      0.46720    0.46720    0.96720   1.00
O2       0.47650    0.52350    1.08820   1.00
O2       0.47650    0.58820    1.02350   1.00
O2       0.41180    0.52350    1.02350   1.00
O2       0.52350    0.47650    1.08820   1.00
O2       0.58820    0.47650    1.02350   1.00
O2       0.52350    0.41180    1.02350   1.00
O2       0.52350    0.58820    0.97650   1.00
O2       0.58820    0.52350    0.97650   1.00
O2       0.52350    0.52350    0.91180   1.00
O2       0.41180    0.47650    0.97650   1.00
O2       0.47650    0.41180    0.97650   1.00
O2       0.47650    0.47650    0.91180   1.00
C1       0.50000    0.50000    1.10520   1.00
C1       0.50000    0.60520    1.00000   1.00
C1       0.39480    0.50000    1.00000   1.00
C1       0.60520    0.50000    1.00000   1.00
C1       0.50000    0.39480    1.00000   1.00
C1       0.50000    0.50000    0.89480   1.00
O1       0.50000    1.00000    0.50000   1.00
Zn1      0.46720    1.03280    0.53280   1.00
Zn1      0.53280    0.96720    0.53280   1.00
Zn1      0.53280    1.03280    0.46720   1.00
Zn1      0.46720    0.96720    0.46720   1.00
O2       0.47650    1.02350    0.58820   1.00
O2       0.47650    1.08820    0.52350   1.00
O2       0.41180    1.02350    0.52350   1.00
O2       0.52350    0.97650    0.58820   1.00
O2       0.58820    0.97650    0.52350   1.00
O2       0.52350    0.91180    0.52350   1.00
O2       0.52350    1.08820    0.47650   1.00
O2       0.58820    1.02350    0.47650   1.00
O2       0.52350    1.02350    0.41180   1.00
O2       0.41180    0.97650    0.47650   1.00
O2       0.47650    0.91180    0.47650   1.00
O2       0.47650    0.97650    0.41180   1.00
C1       0.50000    1.00000    0.60520   1.00
C1       0.50000    1.10520    0.50000   1.00
C1       0.39480    1.00000    0.50000   1.00
C1       0.60520    1.00000    0.50000   1.00
C1       0.50000    0.89480    0.50000   1.00
C1       0.50000    1.00000    0.39480   1.00
O1       1.00000    0.50000    0.50000   1.00
Zn1      0.96720    0.53280    0.53280   1.00
Zn1      1.03280    0.46720    0.53280   1.00
Zn1      1.03280    0.53280    0.46720   1.00
Zn1      0.96720    0.46720    0.46720   1.00
O2       0.97650    0.52350    0.58820   1.00
O2       0.97650    0.58820    0.52350   1.00
O2       0.91180    0.52350    0.52350   1.00
O2       1.02350    0.47650    0.58820   1.00
O2       1.08820    0.47650    0.52350   1.00
O2       1.02350    0.41180    0.52350   1.00
O2       1.02350    0.58820    0.47650   1.00
O2       1.08820    0.52350    0.47650   1.00
O2       1.02350    0.52350    0.41180   1.00
O2       0.91180    0.47650    0.47650   1.00
O2       0.97650    0.41180    0.47650   1.00
O2       0.97650    0.47650    0.41180   1.00
C1       1.00000    0.50000    0.60520   1.00
C1       1.00000    0.60520    0.50000   1.00
C1       0.89480    0.50000    0.50000   1.00
C1       1.10520    0.50000    0.50000   1.00
C1       1.00000    0.39480    0.50000   1.00
C1       1.00000    0.50000    0.39480   1.00
O1       0.50000    0.50000    0.50000   1.00
Zn1      0.53280    0.46720    0.46720   1.00
Zn1      0.46720    0.53280    0.46720   1.00
Zn1      0.46720    0.46720    0.53280   1.00
Zn1      0.53280    0.53280    0.53280   1.00
O2       0.52350    0.47650    0.41180   1.00
O2       0.52350    0.41180    0.47650   1.00
O2       0.58820    0.47650    0.47650   1.00
O2       0.47650    0.52350    0.41180   1.00
O2       0.41180    0.52350    0.47650   1.00
O2       0.47650    0.58820    0.47650   1.00
O2       0.47650    0.41180    0.52350   1.00
O2       0.41180    0.47650    0.52350   1.00
O2       0.47650    0.47650    0.58820   1.00
O2       0.58820    0.52350    0.52350   1.00
O2       0.52350    0.58820    0.52350   1.00
O2       0.52350    0.52350    0.58820   1.00
C1       0.50000    0.50000    0.39480   1.00
C1       0.50000    0.39480    0.50000   1.00
C1       0.60520    0.50000    0.50000   1.00
C1       0.39480    0.50000    0.50000   1.00
C1       0.50000    0.60520    0.50000   1.00
C1       0.50000    0.50000    0.60520   1.00
O1       1.00000    1.00000    0.50000   1.00
Zn1      1.03280    0.96720    0.46720   1.00
Zn1      0.96720    1.03280    0.46720   1.00
Zn1      0.96720    0.96720    0.53280   1.00
Zn1      1.03280    1.03280    0.53280   1.00
O2       1.02350    0.97650    0.41180   1.00
O2       1.02350    0.91180    0.47650   1.00
O2       1.08820    0.97650    0.47650   1.00
O2       0.97650    1.02350    0.41180   1.00
O2       0.91180    1.02350    0.47650   1.00
O2       0.97650    1.08820    0.47650   1.00
O2       0.97650    0.91180    0.52350   1.00
O2       0.91180    0.97650    0.52350   1.00
O2       0.97650    0.97650    0.58820   1.00
O2       1.08820    1.02350    0.52350   1.00
O2       1.02350    1.08820    0.52350   1.00
O2       1.02350    1.02350    0.58820   1.00
C1       1.00000    1.00000    0.39480   1.00
C1       1.00000    0.89480    0.50000   1.00
C1       1.10520    1.00000    0.50000   1.00
C1       0.89480    1.00000    0.50000   1.00
C1       1.00000    1.10520    0.50000   1.00
C1       1.00000    1.00000    0.60520   1.00
O1       1.00000    0.50000    1.00000   1.00
Zn1      1.03280    0.46720    0.96720   1.00
Zn1      0.96720    0.53280    0.96720   1.00
Zn1      0.96720    0.46720    1.03280   1.00
Zn1      1.03280    0.53280    1.03280   1.00
O2       1.02350    0.47650    0.91180   1.00
O2       1.02350    0.41180    0.97650   1.00
O2       1.08820    0.47650    0.97650   1.00
O2       0.97650    0.52350    0.91180   1.00
O2       0.91180    0.52350    0.97650   1.00
O2       0.97650    0.58820    0.97650   1.00
O2       0.97650    0.41180    1.02350   1.00
O2       0.91180    0.47650    1.02350   1.00
O2       0.97650    0.47650    1.08820   1.00
O2       1.08820    0.52350    1.02350   1.00
O2       1.02350    0.58820    1.02350   1.00
O2       1.02350    0.52350    1.08820   1.00
C1       1.00000    0.50000    0.89480   1.00
C1       1.00000    0.39480    1.00000   1.00
C1       1.10520    0.50000    1.00000   1.00
C1       0.89480    0.50000    1.00000   1.00
C1       1.00000    0.60520    1.00000   1.00
C1       1.00000    0.50000    1.10520   1.00
O1       0.50000    1.00000    1.00000   1.00
Zn1      0.53280    0.96720    0.96720   1.00
Zn1      0.46720    1.03280    0.96720   1.00
Zn1      0.46720    0.96720    1.03280   1.00
Zn1      0.53280    1.03280    1.03280   1.00
O2       0.52350    0.97650    0.91180   1.00
O2       0.52350    0.91180    0.97650   1.00
O2       0.58820    0.97650    0.97650   1.00
O2       0.47650    1.02350    0.91180   1.00
O2       0.41180    1.02350    0.97650   1.00
O2       0.47650    1.08820    0.97650   1.00
O2       0.47650    0.91180    1.02350   1.00
O2       0.41180    0.97650    1.02350   1.00
O2       0.47650    0.97650    1.08820   1.00
O2       0.58820    1.02350    1.02350   1.00
O2       0.52350    1.08820    1.02350   1.00
O2       0.52350    1.02350    1.08820   1.00
C1       0.50000    1.00000    0.89480   1.00
C1       0.50000    0.89480    1.00000   1.00
C1       0.60520    1.00000    1.00000   1.00
C1       0.39480    1.00000    1.00000   1.00
C1       0.50000    1.10520    1.00000   1.00
C1       0.50000    1.00000    1.10520   1.00
C5       0.67285    0.85061    1.13218   1.00
H2       0.65760    0.82645    1.14745   1.00
H2       0.65150    0.86252    1.11090   1.00
C5       0.68456    0.88216    1.16194   1.00
C5       0.64978    0.90903    1.17123   1.00
H2       0.70895    0.90008    1.15015   1.00
O3       0.79801    0.80206    0.98000   1.00
C4       0.74992    0.74959    1.02100   1.00
C3c      0.72379    0.77276    1.04243   1.00
H1       0.70303    0.79102    1.02725   1.00
C3d      0.77636    0.72558    1.04135   1.00
C3       0.72433    0.77323    1.08354   1.00
O2       0.69487    0.79287    1.10248   1.00
C3       0.77748    0.72654    1.08227   1.00
H1       0.79919    0.70867    1.09657   1.00
C2       0.75155    0.75012    1.10439   1.00
C5       0.83736    0.78991    0.97879   1.00
H2       0.84879    0.78824    0.94838   1.00
H2       0.84104    0.76068    0.99266   1.00
C5       0.86140    0.81982    1.00129   1.00
H2       0.84929    0.82230    1.03137   1.00
H2       0.85781    0.84881    0.98698   1.00
C5       0.90473    0.80802    1.00262   1.00
H2       0.91694    0.80523    0.97268   1.00
H2       0.90849    0.77973    1.01811   1.00
C5       0.92851    0.83927    1.02445   1.00
C5       0.78936    0.66776    1.01105   1.00
C5       0.70681    0.83150    1.11070   1.00
H2       0.76413    0.67088    0.99088   1.00
H2       0.77984    0.65074    1.03712   1.00
H2       0.71305    0.84744    1.08300   1.00
H2       0.73386    0.83261    1.12895   1.00
H2       0.69371    0.86886    1.19030   1.00
H2       0.78765    0.61871    0.94247   1.00
H2       0.78799    0.59088    0.98763   1.00
C2       0.75267    0.75023    0.89605   1.00
C3       0.72680    0.72511    0.91597   1.00
O2       0.70959    0.69421    0.89674   1.00
C3       0.77588    0.77617    0.91826   1.00
H1       0.79523    0.79647    0.90385   1.00
C3a      0.72544    0.72570    0.95713   1.00
H1       0.70713    0.70475    0.97202   1.00
C3b      0.77536    0.77582    0.95922   1.00
C4       0.75008    0.75041    0.97900   1.00
O3       0.80463    0.70449    1.02167   1.00
C5       0.67059    0.70331    0.88720   1.00
H2       0.65310    0.70986    0.91391   1.00
C5       0.65352    0.66769    0.86674   1.00
H2       0.66916    0.72897    0.86726   1.00
H2       0.64530    0.64581    0.88932   1.00
H2       0.67729    0.65429    0.84907   1.00
C5       0.61820    0.67762    0.84082   1.00
H2       0.59609    0.69371    0.85824   1.00
C5       0.59937    0.64023    0.82453   1.00
H2       0.62702    0.69562    0.81507   1.00
C5       0.82164    0.64537    0.99017   1.00
H2       0.84385    0.63641    1.01215   1.00
H2       0.83641    0.66568    0.96952   1.00
C5       0.80576    0.60967    0.96800   1.00
C5       0.83984    0.58501    0.95225   1.00
H2       0.62955    0.89391    1.19286   1.00
H2       0.66094    0.93742    1.18447   1.00
H2       0.63311    0.91567    1.14323   1.00
H2       0.95890    0.82747    1.03105   1.00
H2       0.93107    0.86649    1.00551   1.00
H2       0.91318    0.84698    1.05293   1.00
H2       0.58788    0.64605    0.79387   1.00
H2       0.62207    0.61595    0.82344   1.00
H2       0.57421    0.63100    0.84423   1.00
H2       0.86836    0.60163    0.95634   1.00
H2       0.84130    0.55623    0.96884   1.00
H2       0.83510    0.57893    0.91990   1.00
C5       0.85061    1.13218    0.67285   1.00
H2       0.82645    1.14745    0.65760   1.00
H2       0.86252    1.11090    0.65150   1.00
C5       0.88216    1.16194    0.68456   1.00
C5       0.90903    1.17123    0.64978   1.00
H2       0.90008    1.15015    0.70895   1.00
O3       0.80206    0.98000    0.79801   1.00
C4       0.74959    1.02100    0.74992   1.00
C3c      0.77276    1.04243    0.72379   1.00
H1       0.79102    1.02725    0.70303   1.00
C3d      0.72558    1.04135    0.77636   1.00
C3       0.77323    1.08354    0.72433   1.00
O2       0.79287    1.10248    0.69487   1.00
C3       0.72654    1.08227    0.77748   1.00
H1       0.70867    1.09657    0.79919   1.00
C2       0.75012    1.10439    0.75155   1.00
C5       0.78991    0.97879    0.83736   1.00
H2       0.78824    0.94838    0.84879   1.00
H2       0.76068    0.99266    0.84104   1.00
C5       0.81982    1.00129    0.86140   1.00
H2       0.82230    1.03137    0.84929   1.00
H2       0.84881    0.98698    0.85781   1.00
C5       0.80802    1.00262    0.90473   1.00
H2       0.80523    0.97268    0.91694   1.00
H2       0.77973    1.01811    0.90849   1.00
C5       0.83927    1.02445    0.92851   1.00
C5       0.66776    1.01105    0.78936   1.00
C5       0.83150    1.11070    0.70681   1.00
H2       0.67088    0.99088    0.76413   1.00
H2       0.65074    1.03712    0.77984   1.00
H2       0.84744    1.08300    0.71305   1.00
H2       0.83261    1.12895    0.73386   1.00
H2       0.86886    1.19030    0.69371   1.00
H2       0.61871    0.94247    0.78765   1.00
H2       0.59088    0.98763    0.78799   1.00
C2       0.75023    0.89605    0.75267   1.00
C3       0.72511    0.91597    0.72680   1.00
O2       0.69421    0.89674    0.70959   1.00
C3       0.77617    0.91826    0.77588   1.00
H1       0.79647    0.90385    0.79523   1.00
C3a      0.72570    0.95713    0.72544   1.00
H1       0.70475    0.97202    0.70713   1.00
C3b      0.77582    0.95922    0.77536   1.00
C4       0.75041    0.97900    0.75008   1.00
O3       0.70449    1.02167    0.80463   1.00
C5       0.70331    0.88720    0.67059   1.00
H2       0.70986    0.91391    0.65310   1.00
C5       0.66769    0.86674    0.65352   1.00
H2       0.72897    0.86726    0.66916   1.00
H2       0.64581    0.88932    0.64530   1.00
H2       0.65429    0.84907    0.67729   1.00
C5       0.67762    0.84082    0.61820   1.00
H2       0.69371    0.85824    0.59609   1.00
C5       0.64023    0.82453    0.59937   1.00
H2       0.69562    0.81507    0.62702   1.00
C5       0.64537    0.99017    0.82164   1.00
H2       0.63641    1.01215    0.84385   1.00
H2       0.66568    0.96952    0.83641   1.00
C5       0.60967    0.96800    0.80576   1.00
C5       0.58501    0.95225    0.83984   1.00
H2       0.89391    1.19286    0.62955   1.00
H2       0.93742    1.18447    0.66094   1.00
H2       0.91567    1.14323    0.63311   1.00
H2       0.82747    1.03105    0.95890   1.00
H2       0.86649    1.00551    0.93107   1.00
H2       0.84698    1.05293    0.91318   1.00
H2       0.64605    0.79387    0.58788   1.00
H2       0.61595    0.82344    0.62207   1.00
H2       0.63100    0.84423    0.57421   1.00
H2       0.60163    0.95634    0.86836   1.00
H2       0.55623    0.96884    0.84130   1.00
H2       0.57893    0.91990    0.83510   1.00
C5       0.36782    0.67285    0.64939   1.00
H2       0.35255    0.65760    0.67355   1.00
H2       0.38910    0.65150    0.63748   1.00
C5       0.33806    0.68456    0.61784   1.00
C5       0.32877    0.64978    0.59097   1.00
H2       0.34985    0.70895    0.59992   1.00
O3       0.52000    0.79801    0.69794   1.00
C4       0.47900    0.74992    0.75041   1.00
C3c      0.45757    0.72379    0.72724   1.00
H1       0.47275    0.70303    0.70898   1.00
C3d      0.45865    0.77636    0.77442   1.00
C3       0.41646    0.72433    0.72677   1.00
O2       0.39752    0.69487    0.70713   1.00
C3       0.41773    0.77748    0.77346   1.00
H1       0.40343    0.79919    0.79133   1.00
C2       0.39561    0.75155    0.74988   1.00
C5       0.52121    0.83736    0.71009   1.00
H2       0.55162    0.84879    0.71176   1.00
H2       0.50734    0.84104    0.73932   1.00
C5       0.49871    0.86140    0.68018   1.00
H2       0.46863    0.84929    0.67770   1.00
H2       0.51302    0.85781    0.65119   1.00
C5       0.49738    0.90473    0.69198   1.00
H2       0.52732    0.91694    0.69477   1.00
H2       0.48189    0.90849    0.72027   1.00
C5       0.47555    0.92851    0.66073   1.00
C5       0.48895    0.78936    0.83224   1.00
C5       0.38930    0.70681    0.66850   1.00
H2       0.50912    0.76413    0.82912   1.00
H2       0.46288    0.77984    0.84926   1.00
H2       0.41700    0.71305    0.65256   1.00
H2       0.37105    0.73386    0.66739   1.00
H2       0.30970    0.69371    0.63114   1.00
H2       0.55753    0.78765    0.88129   1.00
H2       0.51237    0.78799    0.90912   1.00
C2       0.60395    0.75267    0.74977   1.00
C3       0.58403    0.72680    0.77489   1.00
O2       0.60326    0.70959    0.80579   1.00
C3       0.58174    0.77588    0.72383   1.00
H1       0.59615    0.79523    0.70353   1.00
C3a      0.54287    0.72544    0.77430   1.00
H1       0.52798    0.70713    0.79525   1.00
C3b      0.54078    0.77536    0.72418   1.00
C4       0.52100    0.75008    0.74959   1.00
O3       0.47833    0.80463    0.79551   1.00
C5       0.61280    0.67059    0.79669   1.00
H2       0.58609    0.65310    0.79014   1.00
C5       0.63326    0.65352    0.83231   1.00
H2       0.63274    0.66916    0.77103   1.00
H2       0.61068    0.64530    0.85419   1.00
H2       0.65093    0.67729    0.84571   1.00
C5       0.65918    0.61820    0.82238   1.00
H2       0.64176    0.59609    0.80629   1.00
C5       0.67547    0.59937    0.85977   1.00
H2       0.68493    0.62702    0.80438   1.00
C5       0.50983    0.82164    0.85463   1.00
H2       0.48785    0.84385    0.86359   1.00
H2       0.53048    0.83641    0.83432   1.00
C5       0.53200    0.80576    0.89033   1.00
C5       0.54775    0.83984    0.91499   1.00
H2       0.30714    0.62955    0.60609   1.00
H2       0.31553    0.66094    0.56258   1.00
H2       0.35677    0.63311    0.58433   1.00
H2       0.46895    0.95890    0.67253   1.00
H2       0.49449    0.93107    0.63351   1.00
H2       0.44707    0.91318    0.65302   1.00
H2       0.70613    0.58788    0.85395   1.00
H2       0.67656    0.62207    0.88405   1.00
H2       0.65577    0.57421    0.86900   1.00
H2       0.54366    0.86836    0.89837   1.00
H2       0.53116    0.84130    0.94377   1.00
H2       0.58010    0.83510    0.92107   1.00
C5       1.13218    0.67285    0.85061   1.00
H2       1.14745    0.65760    0.82645   1.00
H2       1.11090    0.65150    0.86252   1.00
C5       1.16194    0.68456    0.88216   1.00
C5       1.17123    0.64978    0.90903   1.00
H2       1.15015    0.70895    0.90008   1.00
O3       0.98000    0.79801    0.80206   1.00
C4       1.02100    0.74992    0.74959   1.00
C3c      1.04243    0.72379    0.77276   1.00
H1       1.02725    0.70303    0.79102   1.00
C3d      1.04135    0.77636    0.72558   1.00
C3       1.08354    0.72433    0.77323   1.00
O2       1.10248    0.69487    0.79287   1.00
C3       1.08227    0.77748    0.72654   1.00
H1       1.09657    0.79919    0.70867   1.00
C2       1.10439    0.75155    0.75012   1.00
C5       0.97879    0.83736    0.78991   1.00
H2       0.94838    0.84879    0.78824   1.00
H2       0.99266    0.84104    0.76068   1.00
C5       1.00129    0.86140    0.81982   1.00
H2       1.03137    0.84929    0.82230   1.00
H2       0.98698    0.85781    0.84881   1.00
C5       1.00262    0.90473    0.80802   1.00
H2       0.97268    0.91694    0.80523   1.00
H2       1.01811    0.90849    0.77973   1.00
C5       1.02445    0.92851    0.83927   1.00
C5       1.01105    0.78936    0.66776   1.00
C5       1.11070    0.70681    0.83150   1.00
H2       0.99088    0.76413    0.67088   1.00
H2       1.03712    0.77984    0.65074   1.00
H2       1.08300    0.71305    0.84744   1.00
H2       1.12895    0.73386    0.83261   1.00
H2       1.19030    0.69371    0.86886   1.00
H2       0.94247    0.78765    0.61871   1.00
H2       0.98763    0.78799    0.59088   1.00
C2       0.89605    0.75267    0.75023   1.00
C3       0.91597    0.72680    0.72511   1.00
O2       0.89674    0.70959    0.69421   1.00
C3       0.91826    0.77588    0.77617   1.00
H1       0.90385    0.79523    0.79647   1.00
C3a      0.95713    0.72544    0.72570   1.00
H1       0.97202    0.70713    0.70475   1.00
C3b      0.95922    0.77536    0.77582   1.00
C4       0.97900    0.75008    0.75041   1.00
O3       1.02167    0.80463    0.70449   1.00
C5       0.88720    0.67059    0.70331   1.00
H2       0.91391    0.65310    0.70986   1.00
C5       0.86674    0.65352    0.66769   1.00
H2       0.86726    0.66916    0.72897   1.00
H2       0.88932    0.64530    0.64581   1.00
H2       0.84907    0.67729    0.65429   1.00
C5       0.84082    0.61820    0.67762   1.00
H2       0.85824    0.59609    0.69371   1.00
C5       0.82453    0.59937    0.64023   1.00
H2       0.81507    0.62702    0.69562   1.00
C5       0.99017    0.82164    0.64537   1.00
H2       1.01215    0.84385    0.63641   1.00
H2       0.96952    0.83641    0.66568   1.00
C5       0.96800    0.80576    0.60967   1.00
C5       0.95225    0.83984    0.58501   1.00
H2       1.19286    0.62955    0.89391   1.00
H2       1.18447    0.66094    0.93742   1.00
H2       1.14323    0.63311    0.91567   1.00
H2       1.03105    0.95890    0.82747   1.00
H2       1.00551    0.93107    0.86649   1.00
H2       1.05293    0.91318    0.84698   1.00
H2       0.79387    0.58788    0.64605   1.00
H2       0.82344    0.62207    0.61595   1.00
H2       0.84423    0.57421    0.63100   1.00
H2       0.95634    0.86836    0.60163   1.00
H2       0.96884    0.84130    0.55623   1.00
H2       0.91990    0.83510    0.57893   1.00
C5       0.64939    0.36782    0.67285   1.00
H2       0.67355    0.35255    0.65760   1.00
H2       0.63748    0.38910    0.65150   1.00
C5       0.61784    0.33806    0.68456   1.00
C5       0.59097    0.32877    0.64978   1.00
H2       0.59992    0.34985    0.70895   1.00
O3       0.69794    0.52000    0.79801   1.00
C4       0.75041    0.47900    0.74992   1.00
C3c      0.72724    0.45757    0.72379   1.00
H1       0.70898    0.47275    0.70303   1.00
C3d      0.77442    0.45865    0.77636   1.00
C3       0.72677    0.41646    0.72433   1.00
O2       0.70713    0.39752    0.69487   1.00
C3       0.77346    0.41773    0.77748   1.00
H1       0.79133    0.40343    0.79919   1.00
C2       0.74988    0.39561    0.75155   1.00
C5       0.71009    0.52121    0.83736   1.00
H2       0.71176    0.55162    0.84879   1.00
H2       0.73932    0.50734    0.84104   1.00
C5       0.68018    0.49871    0.86140   1.00
H2       0.67770    0.46863    0.84929   1.00
H2       0.65119    0.51302    0.85781   1.00
C5       0.69198    0.49738    0.90473   1.00
H2       0.69477    0.52732    0.91694   1.00
H2       0.72027    0.48189    0.90849   1.00
C5       0.66073    0.47555    0.92851   1.00
C5       0.83224    0.48895    0.78936   1.00
C5       0.66850    0.38930    0.70681   1.00
H2       0.82912    0.50912    0.76413   1.00
H2       0.84926    0.46288    0.77984   1.00
H2       0.65256    0.41700    0.71305   1.00
H2       0.66739    0.37105    0.73386   1.00
H2       0.63114    0.30970    0.69371   1.00
H2       0.88129    0.55753    0.78765   1.00
H2       0.90912    0.51237    0.78799   1.00
C2       0.74977    0.60395    0.75267   1.00
C3       0.77489    0.58403    0.72680   1.00
O2       0.80579    0.60326    0.70959   1.00
C3       0.72383    0.58174    0.77588   1.00
H1       0.70353    0.59615    0.79523   1.00
C3a      0.77430    0.54287    0.72544   1.00
H1       0.79525    0.52798    0.70713   1.00
C3b      0.72418    0.54078    0.77536   1.00
C4       0.74959    0.52100    0.75008   1.00
O3       0.79551    0.47833    0.80463   1.00
C5       0.79669    0.61280    0.67059   1.00
H2       0.79014    0.58609    0.65310   1.00
C5       0.83231    0.63326    0.65352   1.00
H2       0.77103    0.63274    0.66916   1.00
H2       0.85419    0.61068    0.64530   1.00
H2       0.84571    0.65093    0.67729   1.00
C5       0.82238    0.65918    0.61820   1.00
H2       0.80629    0.64176    0.59609   1.00
C5       0.85977    0.67547    0.59937   1.00
H2       0.80438    0.68493    0.62702   1.00
C5       0.85463    0.50983    0.82164   1.00
H2       0.86359    0.48785    0.84385   1.00
H2       0.83432    0.53048    0.83641   1.00
C5       0.89033    0.53200    0.80576   1.00
C5       0.91499    0.54775    0.83984   1.00
H2       0.60609    0.30714    0.62955   1.00
H2       0.56258    0.31553    0.66094   1.00
H2       0.58433    0.35677    0.63311   1.00
H2       0.67253    0.46895    0.95890   1.00
H2       0.63351    0.49449    0.93107   1.00
H2       0.65302    0.44707    0.91318   1.00
H2       0.85395    0.70613    0.58788   1.00
H2       0.88405    0.67656    0.62207   1.00
H2       0.86900    0.65577    0.57421   1.00
H2       0.89837    0.54366    0.86836   1.00
H2       0.94377    0.53116    0.84130   1.00
H2       0.92107    0.58010    0.83510   1.00
C5       0.67285    0.64939    0.36782   1.00
H2       0.65760    0.67355    0.35255   1.00
H2       0.65150    0.63748    0.38910   1.00
C5       0.68456    0.61784    0.33806   1.00
C5       0.64978    0.59097    0.32877   1.00
H2       0.70895    0.59992    0.34985   1.00
O3       0.79801    0.69794    0.52000   1.00
C4       0.74992    0.75041    0.47900   1.00
C3c      0.72379    0.72724    0.45757   1.00
H1       0.70303    0.70898    0.47275   1.00
C3d      0.77636    0.77442    0.45865   1.00
C3       0.72433    0.72677    0.41646   1.00
O2       0.69487    0.70713    0.39752   1.00
C3       0.77748    0.77346    0.41773   1.00
H1       0.79919    0.79133    0.40343   1.00
C2       0.75155    0.74988    0.39561   1.00
C5       0.83736    0.71009    0.52121   1.00
H2       0.84879    0.71176    0.55162   1.00
H2       0.84104    0.73932    0.50734   1.00
C5       0.86140    0.68018    0.49871   1.00
H2       0.84929    0.67770    0.46863   1.00
H2       0.85781    0.65119    0.51302   1.00
C5       0.90473    0.69198    0.49738   1.00
H2       0.91694    0.69477    0.52732   1.00
H2       0.90849    0.72027    0.48189   1.00
C5       0.92851    0.66073    0.47555   1.00
C5       0.78936    0.83224    0.48895   1.00
C5       0.70681    0.66850    0.38930   1.00
H2       0.76413    0.82912    0.50912   1.00
H2       0.77984    0.84926    0.46288   1.00
H2       0.71305    0.65256    0.41700   1.00
H2       0.73386    0.66739    0.37105   1.00
H2       0.69371    0.63114    0.30970   1.00
H2       0.78765    0.88129    0.55753   1.00
H2       0.78799    0.90912    0.51237   1.00
C2       0.75267    0.74977    0.60395   1.00
C3       0.72680    0.77489    0.58403   1.00
O2       0.70959    0.80579    0.60326   1.00
C3       0.77588    0.72383    0.58174   1.00
H1       0.79523    0.70353    0.59615   1.00
C3a      0.72544    0.77430    0.54287   1.00
H1       0.70713    0.79525    0.52798   1.00
C3b      0.77536    0.72418    0.54078   1.00
C4       0.75008    0.74959    0.52100   1.00
O3       0.80463    0.79551    0.47833   1.00
C5       0.67059    0.79669    0.61280   1.00
H2       0.65310    0.79014    0.58609   1.00
C5       0.65352    0.83231    0.63326   1.00
H2       0.66916    0.77103    0.63274   1.00
H2       0.64530    0.85419    0.61068   1.00
H2       0.67729    0.84571    0.65093   1.00
C5       0.61820    0.82238    0.65918   1.00
H2       0.59609    0.80629    0.64176   1.00
C5       0.59937    0.85977    0.67547   1.00
H2       0.62702    0.80438    0.68493   1.00
C5       0.82164    0.85463    0.50983   1.00
H2       0.84385    0.86359    0.48785   1.00
H2       0.83641    0.83432    0.53048   1.00
C5       0.80576    0.89033    0.53200   1.00
C5       0.83984    0.91499    0.54775   1.00
H2       0.62955    0.60609    0.30714   1.00
H2       0.66094    0.56258    0.31553   1.00
H2       0.63311    0.58433    0.35677   1.00
H2       0.95890    0.67253    0.46895   1.00
H2       0.93107    0.63351    0.49449   1.00
H2       0.91318    0.65302    0.44707   1.00
H2       0.58788    0.85395    0.70613   1.00
H2       0.62207    0.88405    0.67656   1.00
H2       0.57421    0.86900    0.65577   1.00
H2       0.86836    0.89837    0.54366   1.00
H2       0.84130    0.94377    0.53116   1.00
H2       0.83510    0.92107    0.58010   1.00
C5       0.17285    0.35061    1.13218   1.00
H2       0.15760    0.32645    1.14745   1.00
H2       0.15150    0.36252    1.11090   1.00
C5       0.18456    0.38216    1.16194   1.00
C5       0.14978    0.40903    1.17123   1.00
H2       0.20895    0.40008    1.15015   1.00
O3       0.29801    0.30206    0.98000   1.00
C4       0.24992    0.24959    1.02100   1.00
C3c      0.22379    0.27276    1.04243   1.00
H1       0.20303    0.29102    1.02725   1.00
C3d      0.27636    0.22558    1.04135   1.00
C3       0.22433    0.27323    1.08354   1.00
O2       0.19487    0.29287    1.10248   1.00
C3       0.27748    0.22654    1.08227   1.00
H1       0.29919    0.20867    1.09657   1.00
C2       0.25155    0.25012    1.10439   1.00
C5       0.33736    0.28991    0.97879   1.00
H2       0.34879    0.28824    0.94838   1.00
H2       0.34104    0.26068    0.99266   1.00
C5       0.36140    0.31982    1.00129   1.00
H2       0.34929    0.32230    1.03137   1.00
H2       0.35781    0.34881    0.98698   1.00
C5       0.40473    0.30802    1.00262   1.00
H2       0.41694    0.30523    0.97268   1.00
H2       0.40849    0.27973    1.01811   1.00
C5       0.42851    0.33927    1.02445   1.00
C5       0.28936    0.16776    1.01105   1.00
C5       0.20681    0.33150    1.11070   1.00
H2       0.26413    0.17088    0.99088   1.00
H2       0.27984    0.15074    1.03712   1.00
H2       0.21305    0.34744    1.08300   1.00
H2       0.23386    0.33261    1.12895   1.00
H2       0.19371    0.36886    1.19030   1.00
H2       0.28765    0.11871    0.94247   1.00
H2       0.28799    0.09088    0.98763   1.00
C2       0.25267    0.25023    0.89605   1.00
C3       0.22680    0.22511    0.91597   1.00
O2       0.20959    0.19421    0.89674   1.00
C3       0.27588    0.27617    0.91826   1.00
H1       0.29523    0.29647    0.90385   1.00
C3a      0.22544    0.22570    0.95713   1.00
H1       0.20713    0.20475    0.97202   1.00
C3b      0.27536    0.27582    0.95922   1.00
C4       0.25008    0.25041    0.97900   1.00
O3       0.30463    0.20449    1.02167   1.00
C5       0.17059    0.20331    0.88720   1.00
H2       0.15310    0.20986    0.91391   1.00
C5       0.15352    0.16769    0.86674   1.00
H2       0.16916    0.22897    0.86726   1.00
H2       0.14530    0.14581    0.88932   1.00
H2       0.17729    0.15429    0.84907   1.00
C5       0.11820    0.17762    0.84082   1.00
H2       0.09609    0.19371    0.85824   1.00
C5       0.09937    0.14023    0.82453   1.00
H2       0.12702    0.19562    0.81507   1.00
C5       0.32164    0.14537    0.99017   1.00
H2       0.34385    0.13641    1.01215   1.00
H2       0.33641    0.16568    0.96952   1.00
C5       0.30576    0.10967    0.96800   1.00
C5       0.33984    0.08501    0.95225   1.00
H2       0.12955    0.39391    1.19286   1.00
H2       0.16094    0.43742    1.18447   1.00
H2       0.13311    0.41567    1.14323   1.00
H2       0.45890    0.32747    1.03105   1.00
H2       0.43107    0.36649    1.00551   1.00
H2       0.41318    0.34698    1.05293   1.00
H2       0.08788    0.14605    0.79387   1.00
H2       0.12207    0.11595    0.82344   1.00
H2       0.07421    0.13100    0.84423   1.00
H2       0.36836    0.10163    0.95634   1.00
H2       0.34130    0.05623    0.96884   1.00
H2       0.33510    0.07893    0.91990   1.00
C5       0.35061    0.63218    0.67285   1.00
H2       0.32645    0.64745    0.65760   1.00
H2       0.36252    0.61090    0.65150   1.00
C5       0.38216    0.66194    0.68456   1.00
C5       0.40903    0.67123    0.64978   1.00
H2       0.40008    0.65015    0.70895   1.00
O3       0.30206    0.48000    0.79801   1.00
C4       0.24959    0.52100    0.74992   1.00
C3c      0.27276    0.54243    0.72379   1.00
H1       0.29102    0.52725    0.70303   1.00
C3d      0.22558    0.54135    0.77636   1.00
C3       0.27323    0.58354    0.72433   1.00
O2       0.29287    0.60248    0.69487   1.00
C3       0.22654    0.58227    0.77748   1.00
H1       0.20867    0.59657    0.79919   1.00
C2       0.25012    0.60439    0.75155   1.00
C5       0.28991    0.47879    0.83736   1.00
H2       0.28824    0.44838    0.84879   1.00
H2       0.26068    0.49266    0.84104   1.00
C5       0.31982    0.50129    0.86140   1.00
H2       0.32230    0.53137    0.84929   1.00
H2       0.34881    0.48698    0.85781   1.00
C5       0.30802    0.50262    0.90473   1.00
H2       0.30523    0.47268    0.91694   1.00
H2       0.27973    0.51811    0.90849   1.00
C5       0.33927    0.52445    0.92851   1.00
C5       0.16776    0.51105    0.78936   1.00
C5       0.33150    0.61070    0.70681   1.00
H2       0.17088    0.49088    0.76413   1.00
H2       0.15074    0.53712    0.77984   1.00
H2       0.34744    0.58300    0.71305   1.00
H2       0.33261    0.62895    0.73386   1.00
H2       0.36886    0.69030    0.69371   1.00
H2       0.11871    0.44247    0.78765   1.00
H2       0.09088    0.48763    0.78799   1.00
C2       0.25023    0.39605    0.75267   1.00
C3       0.22511    0.41597    0.72680   1.00
O2       0.19421    0.39674    0.70959   1.00
C3       0.27617    0.41826    0.77588   1.00
H1       0.29647    0.40385    0.79523   1.00
C3a      0.22570    0.45713    0.72544   1.00
H1       0.20475    0.47202    0.70713   1.00
C3b      0.27582    0.45922    0.77536   1.00
C4       0.25041    0.47900    0.75008   1.00
O3       0.20449    0.52167    0.80463   1.00
C5       0.20331    0.38720    0.67059   1.00
H2       0.20986    0.41391    0.65310   1.00
C5       0.16769    0.36674    0.65352   1.00
H2       0.22897    0.36726    0.66916   1.00
H2       0.14581    0.38932    0.64530   1.00
H2       0.15429    0.34907    0.67729   1.00
C5       0.17762    0.34082    0.61820   1.00
H2       0.19371    0.35824    0.59609   1.00
C5       0.14023    0.32453    0.59937   1.00
H2       0.19562    0.31507    0.62702   1.00
C5       0.14537    0.49017    0.82164   1.00
H2       0.13641    0.51215    0.84385   1.00
H2       0.16568    0.46952    0.83641   1.00
C5       0.10967    0.46800    0.80576   1.00
C5       0.08501    0.45225    0.83984   1.00
H2       0.39391    0.69286    0.62955   1.00
H2       0.43742    0.68447    0.66094   1.00
H2       0.41567    0.64323    0.63311   1.00
H2       0.32747    0.53105    0.95890   1.00
H2       0.36649    0.50551    0.93107   1.00
H2       0.34698    0.55293    0.91318   1.00
H2       0.14605    0.29387    0.58788   1.00
H2       0.11595    0.32344    0.62207   1.00
H2       0.13100    0.34423    0.57421   1.00
H2       0.10163    0.45634    0.86836   1.00
H2       0.05623    0.46884    0.84130   1.00
H2       0.07893    0.41990    0.83510   1.00
C5       -0.13218   0.17285    0.64939   1.00
H2       -0.14745   0.15760    0.67355   1.00
H2       -0.11090   0.15150    0.63748   1.00
C5       -0.16194   0.18456    0.61784   1.00
C5       -0.17123   0.14978    0.59097   1.00
H2       -0.15015   0.20895    0.59992   1.00
O3       0.02000    0.29801    0.69794   1.00
C4       -0.02100   0.24992    0.75041   1.00
C3c      -0.04243   0.22379    0.72724   1.00
H1       -0.02725   0.20303    0.70898   1.00
C3d      -0.04135   0.27636    0.77442   1.00
C3       -0.08354   0.22433    0.72677   1.00
O2       -0.10248   0.19487    0.70713   1.00
C3       -0.08227   0.27748    0.77346   1.00
H1       -0.09657   0.29919    0.79133   1.00
C2       -0.10439   0.25155    0.74988   1.00
C5       0.02121    0.33736    0.71009   1.00
H2       0.05162    0.34879    0.71176   1.00
H2       0.00734    0.34104    0.73932   1.00
C5       -0.00129   0.36140    0.68018   1.00
H2       -0.03137   0.34929    0.67770   1.00
H2       0.01302    0.35781    0.65119   1.00
C5       -0.00262   0.40473    0.69198   1.00
H2       0.02732    0.41694    0.69477   1.00
H2       -0.01811   0.40849    0.72027   1.00
C5       -0.02445   0.42851    0.66073   1.00
C5       -0.01105   0.28936    0.83224   1.00
C5       -0.11070   0.20681    0.66850   1.00
H2       0.00912    0.26413    0.82912   1.00
H2       -0.03712   0.27984    0.84926   1.00
H2       -0.08300   0.21305    0.65256   1.00
H2       -0.12895   0.23386    0.66739   1.00
H2       -0.19030   0.19371    0.63114   1.00
H2       0.05753    0.28765    0.88129   1.00
H2       0.01237    0.28799    0.90912   1.00
C2       0.10395    0.25267    0.74977   1.00
C3       0.08403    0.22680    0.77489   1.00
O2       0.10326    0.20959    0.80579   1.00
C3       0.08174    0.27588    0.72383   1.00
H1       0.09615    0.29523    0.70353   1.00
C3a      0.04287    0.22544    0.77430   1.00
H1       0.02798    0.20713    0.79525   1.00
C3b      0.04078    0.27536    0.72418   1.00
C4       0.02100    0.25008    0.74959   1.00
O3       -0.02167   0.30463    0.79551   1.00
C5       0.11280    0.17059    0.79669   1.00
H2       0.08609    0.15310    0.79014   1.00
C5       0.13326    0.15352    0.83231   1.00
H2       0.13274    0.16916    0.77103   1.00
H2       0.11068    0.14530    0.85419   1.00
H2       0.15093    0.17729    0.84571   1.00
C5       0.15918    0.11820    0.82238   1.00
H2       0.14176    0.09609    0.80629   1.00
C5       0.17547    0.09937    0.85977   1.00
H2       0.18493    0.12702    0.80438   1.00
C5       0.00983    0.32164    0.85463   1.00
H2       -0.01215   0.34385    0.86359   1.00
H2       0.03048    0.33641    0.83432   1.00
C5       0.03200    0.30576    0.89033   1.00
C5       0.04775    0.33984    0.91499   1.00
H2       -0.19286   0.12955    0.60609   1.00
H2       -0.18447   0.16094    0.56258   1.00
H2       -0.14323   0.13311    0.58433   1.00
H2       -0.03105   0.45890    0.67253   1.00
H2       -0.00551   0.43107    0.63351   1.00
H2       -0.05293   0.41318    0.65302   1.00
H2       0.20613    0.08788    0.85395   1.00
H2       0.17656    0.12207    0.88405   1.00
H2       0.15577    0.07421    0.86900   1.00
H2       0.04366    0.36836    0.89837   1.00
H2       0.03116    0.34130    0.94377   1.00
H2       0.08010    0.33510    0.92107   1.00
C5       0.63218    0.17285    0.85061   1.00
H2       0.64745    0.15760    0.82645   1.00
H2       0.61090    0.15150    0.86252   1.00
C5       0.66194    0.18456    0.88216   1.00
C5       0.67123    0.14978    0.90903   1.00
H2       0.65015    0.20895    0.90008   1.00
O3       0.48000    0.29801    0.80206   1.00
C4       0.52100    0.24992    0.74959   1.00
C3c      0.54243    0.22379    0.77276   1.00
H1       0.52725    0.20303    0.79102   1.00
C3d      0.54135    0.27636    0.72558   1.00
C3       0.58354    0.22433    0.77323   1.00
O2       0.60248    0.19487    0.79287   1.00
C3       0.58227    0.27748    0.72654   1.00
H1       0.59657    0.29919    0.70867   1.00
C2       0.60439    0.25155    0.75012   1.00
C5       0.47879    0.33736    0.78991   1.00
H2       0.44838    0.34879    0.78824   1.00
H2       0.49266    0.34104    0.76068   1.00
C5       0.50129    0.36140    0.81982   1.00
H2       0.53137    0.34929    0.82230   1.00
H2       0.48698    0.35781    0.84881   1.00
C5       0.50262    0.40473    0.80802   1.00
H2       0.47268    0.41694    0.80523   1.00
H2       0.51811    0.40849    0.77973   1.00
C5       0.52445    0.42851    0.83927   1.00
C5       0.51105    0.28936    0.66776   1.00
C5       0.61070    0.20681    0.83150   1.00
H2       0.49088    0.26413    0.67088   1.00
H2       0.53712    0.27984    0.65074   1.00
H2       0.58300    0.21305    0.84744   1.00
H2       0.62895    0.23386    0.83261   1.00
H2       0.69030    0.19371    0.86886   1.00
H2       0.44247    0.28765    0.61871   1.00
H2       0.48763    0.28799    0.59088   1.00
C2       0.39605    0.25267    0.75023   1.00
C3       0.41597    0.22680    0.72511   1.00
O2       0.39674    0.20959    0.69421   1.00
C3       0.41826    0.27588    0.77617   1.00
H1       0.40385    0.29523    0.79647   1.00
C3a      0.45713    0.22544    0.72570   1.00
H1       0.47202    0.20713    0.70475   1.00
C3b      0.45922    0.27536    0.77582   1.00
C4       0.47900    0.25008    0.75041   1.00
O3       0.52167    0.30463    0.70449   1.00
C5       0.38720    0.17059    0.70331   1.00
H2       0.41391    0.15310    0.70986   1.00
C5       0.36674    0.15352    0.66769   1.00
H2       0.36726    0.16916    0.72897   1.00
H2       0.38932    0.14530    0.64581   1.00
H2       0.34907    0.17729    0.65429   1.00
C5       0.34082    0.11820    0.67762   1.00
H2       0.35824    0.09609    0.69371   1.00
C5       0.32453    0.09937    0.64023   1.00
H2       0.31507    0.12702    0.69562   1.00
C5       0.49017    0.32164    0.64537   1.00
H2       0.51215    0.34385    0.63641   1.00
H2       0.46952    0.33641    0.66568   1.00
C5       0.46800    0.30576    0.60967   1.00
C5       0.45225    0.33984    0.58501   1.00
H2       0.69286    0.12955    0.89391   1.00
H2       0.68447    0.16094    0.93742   1.00
H2       0.64323    0.13311    0.91567   1.00
H2       0.53105    0.45890    0.82747   1.00
H2       0.50551    0.43107    0.86649   1.00
H2       0.55293    0.41318    0.84698   1.00
H2       0.29387    0.08788    0.64605   1.00
H2       0.32344    0.12207    0.61595   1.00
H2       0.34423    0.07421    0.63100   1.00
H2       0.45634    0.36836    0.60163   1.00
H2       0.46884    0.34130    0.55623   1.00
H2       0.41990    0.33510    0.57893   1.00
C5       0.14939    -0.13218   0.67285   1.00
H2       0.17355    -0.14745   0.65760   1.00
H2       0.13748    -0.11090   0.65150   1.00
C5       0.11784    -0.16194   0.68456   1.00
C5       0.09097    -0.17123   0.64978   1.00
H2       0.09992    -0.15015   0.70895   1.00
O3       0.19794    0.02000    0.79801   1.00
C4       0.25041    -0.02100   0.74992   1.00
C3c      0.22724    -0.04243   0.72379   1.00
H1       0.20898    -0.02725   0.70303   1.00
C3d      0.27442    -0.04135   0.77636   1.00
C3       0.22677    -0.08354   0.72433   1.00
O2       0.20713    -0.10248   0.69487   1.00
C3       0.27346    -0.08227   0.77748   1.00
H1       0.29133    -0.09657   0.79919   1.00
C2       0.24988    -0.10439   0.75155   1.00
C5       0.21009    0.02121    0.83736   1.00
H2       0.21176    0.05162    0.84879   1.00
H2       0.23932    0.00734    0.84104   1.00
C5       0.18018    -0.00129   0.86140   1.00
H2       0.17770    -0.03137   0.84929   1.00
H2       0.15119    0.01302    0.85781   1.00
C5       0.19198    -0.00262   0.90473   1.00
H2       0.19477    0.02732    0.91694   1.00
H2       0.22027    -0.01811   0.90849   1.00
C5       0.16073    -0.02445   0.92851   1.00
C5       0.33224    -0.01105   0.78936   1.00
C5       0.16850    -0.11070   0.70681   1.00
H2       0.32912    0.00912    0.76413   1.00
H2       0.34926    -0.03712   0.77984   1.00
H2       0.15256    -0.08300   0.71305   1.00
H2       0.16739    -0.12895   0.73386   1.00
H2       0.13114    -0.19030   0.69371   1.00
H2       0.38129    0.05753    0.78765   1.00
H2       0.40912    0.01237    0.78799   1.00
C2       0.24977    0.10395    0.75267   1.00
C3       0.27489    0.08403    0.72680   1.00
O2       0.30579    0.10326    0.70959   1.00
C3       0.22383    0.08174    0.77588   1.00
H1       0.20353    0.09615    0.79523   1.00
C3a      0.27430    0.04287    0.72544   1.00
H1       0.29525    0.02798    0.70713   1.00
C3b      0.22418    0.04078    0.77536   1.00
C4       0.24959    0.02100    0.75008   1.00
O3       0.29551    -0.02167   0.80463   1.00
C5       0.29669    0.11280    0.67059   1.00
H2       0.29014    0.08609    0.65310   1.00
C5       0.33231    0.13326    0.65352   1.00
H2       0.27103    0.13274    0.66916   1.00
H2       0.35419    0.11068    0.64530   1.00
H2       0.34571    0.15093    0.67729   1.00
C5       0.32238    0.15918    0.61820   1.00
H2       0.30629    0.14176    0.59609   1.00
C5       0.35977    0.17547    0.59937   1.00
H2       0.30438    0.18493    0.62702   1.00
C5       0.35463    0.00983    0.82164   1.00
H2       0.36359    -0.01215   0.84385   1.00
H2       0.33432    0.03048    0.83641   1.00
C5       0.39033    0.03200    0.80576   1.00
C5       0.41499    0.04775    0.83984   1.00
H2       0.10609    -0.19286   0.62955   1.00
H2       0.06258    -0.18447   0.66094   1.00
H2       0.08433    -0.14323   0.63311   1.00
H2       0.17253    -0.03105   0.95890   1.00
H2       0.13351    -0.00551   0.93107   1.00
H2       0.15302    -0.05293   0.91318   1.00
H2       0.35395    0.20613    0.58788   1.00
H2       0.38405    0.17656    0.62207   1.00
H2       0.36900    0.15577    0.57421   1.00
H2       0.39837    0.04366    0.86836   1.00
H2       0.44377    0.03116    0.84130   1.00
H2       0.42107    0.08010    0.83510   1.00
C5       0.17285    0.14939    0.36782   1.00
H2       0.15760    0.17355    0.35255   1.00
H2       0.15150    0.13748    0.38910   1.00
C5       0.18456    0.11784    0.33806   1.00
C5       0.14978    0.09097    0.32877   1.00
H2       0.20895    0.09992    0.34985   1.00
O3       0.29801    0.19794    0.52000   1.00
C4       0.24992    0.25041    0.47900   1.00
C3c      0.22379    0.22724    0.45757   1.00
H1       0.20303    0.20898    0.47275   1.00
C3d      0.27636    0.27442    0.45865   1.00
C3       0.22433    0.22677    0.41646   1.00
O2       0.19487    0.20713    0.39752   1.00
C3       0.27748    0.27346    0.41773   1.00
H1       0.29919    0.29133    0.40343   1.00
C2       0.25155    0.24988    0.39561   1.00
C5       0.33736    0.21009    0.52121   1.00
H2       0.34879    0.21176    0.55162   1.00
H2       0.34104    0.23932    0.50734   1.00
C5       0.36140    0.18018    0.49871   1.00
H2       0.34929    0.17770    0.46863   1.00
H2       0.35781    0.15119    0.51302   1.00
C5       0.40473    0.19198    0.49738   1.00
H2       0.41694    0.19477    0.52732   1.00
H2       0.40849    0.22027    0.48189   1.00
C5       0.42851    0.16073    0.47555   1.00
C5       0.28936    0.33224    0.48895   1.00
C5       0.20681    0.16850    0.38930   1.00
H2       0.26413    0.32912    0.50912   1.00
H2       0.27984    0.34926    0.46288   1.00
H2       0.21305    0.15256    0.41700   1.00
H2       0.23386    0.16739    0.37105   1.00
H2       0.19371    0.13114    0.30970   1.00
H2       0.28765    0.38129    0.55753   1.00
H2       0.28799    0.40912    0.51237   1.00
C2       0.25267    0.24977    0.60395   1.00
C3       0.22680    0.27489    0.58403   1.00
O2       0.20959    0.30579    0.60326   1.00
C3       0.27588    0.22383    0.58174   1.00
H1       0.29523    0.20353    0.59615   1.00
C3a      0.22544    0.27430    0.54287   1.00
H1       0.20713    0.29525    0.52798   1.00
C3b      0.27536    0.22418    0.54078   1.00
C4       0.25008    0.24959    0.52100   1.00
O3       0.30463    0.29551    0.47833   1.00
C5       0.17059    0.29669    0.61280   1.00
H2       0.15310    0.29014    0.58609   1.00
C5       0.15352    0.33231    0.63326   1.00
H2       0.16916    0.27103    0.63274   1.00
H2       0.14530    0.35419    0.61068   1.00
H2       0.17729    0.34571    0.65093   1.00
C5       0.11820    0.32238    0.65918   1.00
H2       0.09609    0.30629    0.64176   1.00
C5       0.09937    0.35977    0.67547   1.00
H2       0.12702    0.30438    0.68493   1.00
C5       0.32164    0.35463    0.50983   1.00
H2       0.34385    0.36359    0.48785   1.00
H2       0.33641    0.33432    0.53048   1.00
C5       0.30576    0.39033    0.53200   1.00
C5       0.33984    0.41499    0.54775   1.00
H2       0.12955    0.10609    0.30714   1.00
H2       0.16094    0.06258    0.31553   1.00
H2       0.13311    0.08433    0.35677   1.00
H2       0.45890    0.17253    0.46895   1.00
H2       0.43107    0.13351    0.49449   1.00
H2       0.41318    0.15302    0.44707   1.00
H2       0.08788    0.35395    0.70613   1.00
H2       0.12207    0.38405    0.67656   1.00
H2       0.07421    0.36900    0.65577   1.00
H2       0.36836    0.39837    0.54366   1.00
H2       0.34130    0.44377    0.53116   1.00
H2       0.33510    0.42107    0.58010   1.00
C5       0.17285    0.85061    0.63218   1.00
H2       0.15760    0.82645    0.64745   1.00
H2       0.15150    0.86252    0.61090   1.00
C5       0.18456    0.88216    0.66194   1.00
C5       0.14978    0.90903    0.67123   1.00
H2       0.20895    0.90008    0.65015   1.00
O3       0.29801    0.80206    0.48000   1.00
C4       0.24992    0.74959    0.52100   1.00
C3c      0.22379    0.77276    0.54243   1.00
H1       0.20303    0.79102    0.52725   1.00
C3d      0.27636    0.72558    0.54135   1.00
C3       0.22433    0.77323    0.58354   1.00
O2       0.19487    0.79287    0.60248   1.00
C3       0.27748    0.72654    0.58227   1.00
H1       0.29919    0.70867    0.59657   1.00
C2       0.25155    0.75012    0.60439   1.00
C5       0.33736    0.78991    0.47879   1.00
H2       0.34879    0.78824    0.44838   1.00
H2       0.34104    0.76068    0.49266   1.00
C5       0.36140    0.81982    0.50129   1.00
H2       0.34929    0.82230    0.53137   1.00
H2       0.35781    0.84881    0.48698   1.00
C5       0.40473    0.80802    0.50262   1.00
H2       0.41694    0.80523    0.47268   1.00
H2       0.40849    0.77973    0.51811   1.00
C5       0.42851    0.83927    0.52445   1.00
C5       0.28936    0.66776    0.51105   1.00
C5       0.20681    0.83150    0.61070   1.00
H2       0.26413    0.67088    0.49088   1.00
H2       0.27984    0.65074    0.53712   1.00
H2       0.21305    0.84744    0.58300   1.00
H2       0.23386    0.83261    0.62895   1.00
H2       0.19371    0.86886    0.69030   1.00
H2       0.28765    0.61871    0.44247   1.00
H2       0.28799    0.59088    0.48763   1.00
C2       0.25267    0.75023    0.39605   1.00
C3       0.22680    0.72511    0.41597   1.00
O2       0.20959    0.69421    0.39674   1.00
C3       0.27588    0.77617    0.41826   1.00
H1       0.29523    0.79647    0.40385   1.00
C3a      0.22544    0.72570    0.45713   1.00
H1       0.20713    0.70475    0.47202   1.00
C3b      0.27536    0.77582    0.45922   1.00
C4       0.25008    0.75041    0.47900   1.00
O3       0.30463    0.70449    0.52167   1.00
C5       0.17059    0.70331    0.38720   1.00
H2       0.15310    0.70986    0.41391   1.00
C5       0.15352    0.66769    0.36674   1.00
H2       0.16916    0.72897    0.36726   1.00
H2       0.14530    0.64581    0.38932   1.00
H2       0.17729    0.65429    0.34907   1.00
C5       0.11820    0.67762    0.34082   1.00
H2       0.09609    0.69371    0.35824   1.00
C5       0.09937    0.64023    0.32453   1.00
H2       0.12702    0.69562    0.31507   1.00
C5       0.32164    0.64537    0.49017   1.00
H2       0.34385    0.63641    0.51215   1.00
H2       0.33641    0.66568    0.46952   1.00
C5       0.30576    0.60967    0.46800   1.00
C5       0.33984    0.58501    0.45225   1.00
H2       0.12955    0.89391    0.69286   1.00
H2       0.16094    0.93742    0.68447   1.00
H2       0.13311    0.91567    0.64323   1.00
H2       0.45890    0.82747    0.53105   1.00
H2       0.43107    0.86649    0.50551   1.00
H2       0.41318    0.84698    0.55293   1.00
H2       0.08788    0.64605    0.29387   1.00
H2       0.12207    0.61595    0.32344   1.00
H2       0.07421    0.63100    0.34423   1.00
H2       0.36836    0.60163    0.45634   1.00
H2       0.34130    0.55623    0.46884   1.00
H2       0.33510    0.57893    0.41990   1.00
C5       0.35061    1.13218    0.17285   1.00
H2       0.32645    1.14745    0.15760   1.00
H2       0.36252    1.11090    0.15150   1.00
C5       0.38216    1.16194    0.18456   1.00
C5       0.40903    1.17123    0.14978   1.00
H2       0.40008    1.15015    0.20895   1.00
O3       0.30206    0.98000    0.29801   1.00
C4       0.24959    1.02100    0.24992   1.00
C3c      0.27276    1.04243    0.22379   1.00
H1       0.29102    1.02725    0.20303   1.00
C3d      0.22558    1.04135    0.27636   1.00
C3       0.27323    1.08354    0.22433   1.00
O2       0.29287    1.10248    0.19487   1.00
C3       0.22654    1.08227    0.27748   1.00
H1       0.20867    1.09657    0.29919   1.00
C2       0.25012    1.10439    0.25155   1.00
C5       0.28991    0.97879    0.33736   1.00
H2       0.28824    0.94838    0.34879   1.00
H2       0.26068    0.99266    0.34104   1.00
C5       0.31982    1.00129    0.36140   1.00
H2       0.32230    1.03137    0.34929   1.00
H2       0.34881    0.98698    0.35781   1.00
C5       0.30802    1.00262    0.40473   1.00
H2       0.30523    0.97268    0.41694   1.00
H2       0.27973    1.01811    0.40849   1.00
C5       0.33927    1.02445    0.42851   1.00
C5       0.16776    1.01105    0.28936   1.00
C5       0.33150    1.11070    0.20681   1.00
H2       0.17088    0.99088    0.26413   1.00
H2       0.15074    1.03712    0.27984   1.00
H2       0.34744    1.08300    0.21305   1.00
H2       0.33261    1.12895    0.23386   1.00
H2       0.36886    1.19030    0.19371   1.00
H2       0.11871    0.94247    0.28765   1.00
H2       0.09088    0.98763    0.28799   1.00
C2       0.25023    0.89605    0.25267   1.00
C3       0.22511    0.91597    0.22680   1.00
O2       0.19421    0.89674    0.20959   1.00
C3       0.27617    0.91826    0.27588   1.00
H1       0.29647    0.90385    0.29523   1.00
C3a      0.22570    0.95713    0.22544   1.00
H1       0.20475    0.97202    0.20713   1.00
C3b      0.27582    0.95922    0.27536   1.00
C4       0.25041    0.97900    0.25008   1.00
O3       0.20449    1.02167    0.30463   1.00
C5       0.20331    0.88720    0.17059   1.00
H2       0.20986    0.91391    0.15310   1.00
C5       0.16769    0.86674    0.15352   1.00
H2       0.22897    0.86726    0.16916   1.00
H2       0.14581    0.88932    0.14530   1.00
H2       0.15429    0.84907    0.17729   1.00
C5       0.17762    0.84082    0.11820   1.00
H2       0.19371    0.85824    0.09609   1.00
C5       0.14023    0.82453    0.09937   1.00
H2       0.19562    0.81507    0.12702   1.00
C5       0.14537    0.99017    0.32164   1.00
H2       0.13641    1.01215    0.34385   1.00
H2       0.16568    0.96952    0.33641   1.00
C5       0.10967    0.96800    0.30576   1.00
C5       0.08501    0.95225    0.33984   1.00
H2       0.39391    1.19286    0.12955   1.00
H2       0.43742    1.18447    0.16094   1.00
H2       0.41567    1.14323    0.13311   1.00
H2       0.32747    1.03105    0.45890   1.00
H2       0.36649    1.00551    0.43107   1.00
H2       0.34698    1.05293    0.41318   1.00
H2       0.14605    0.79387    0.08788   1.00
H2       0.11595    0.82344    0.12207   1.00
H2       0.13100    0.84423    0.07421   1.00
H2       0.10163    0.95634    0.36836   1.00
H2       0.05623    0.96884    0.34130   1.00
H2       0.07893    0.91990    0.33510   1.00
C5       -0.13218   0.67285    0.14939   1.00
H2       -0.14745   0.65760    0.17355   1.00
H2       -0.11090   0.65150    0.13748   1.00
C5       -0.16194   0.68456    0.11784   1.00
C5       -0.17123   0.64978    0.09097   1.00
H2       -0.15015   0.70895    0.09992   1.00
O3       0.02000    0.79801    0.19794   1.00
C4       -0.02100   0.74992    0.25041   1.00
C3c      -0.04243   0.72379    0.22724   1.00
H1       -0.02725   0.70303    0.20898   1.00
C3d      -0.04135   0.77636    0.27442   1.00
C3       -0.08354   0.72433    0.22677   1.00
O2       -0.10248   0.69487    0.20713   1.00
C3       -0.08227   0.77748    0.27346   1.00
H1       -0.09657   0.79919    0.29133   1.00
C2       -0.10439   0.75155    0.24988   1.00
C5       0.02121    0.83736    0.21009   1.00
H2       0.05162    0.84879    0.21176   1.00
H2       0.00734    0.84104    0.23932   1.00
C5       -0.00129   0.86140    0.18018   1.00
H2       -0.03137   0.84929    0.17770   1.00
H2       0.01302    0.85781    0.15119   1.00
C5       -0.00262   0.90473    0.19198   1.00
H2       0.02732    0.91694    0.19477   1.00
H2       -0.01811   0.90849    0.22027   1.00
C5       -0.02445   0.92851    0.16073   1.00
C5       -0.01105   0.78936    0.33224   1.00
C5       -0.11070   0.70681    0.16850   1.00
H2       0.00912    0.76413    0.32912   1.00
H2       -0.03712   0.77984    0.34926   1.00
H2       -0.08300   0.71305    0.15256   1.00
H2       -0.12895   0.73386    0.16739   1.00
H2       -0.19030   0.69371    0.13114   1.00
H2       0.05753    0.78765    0.38129   1.00
H2       0.01237    0.78799    0.40912   1.00
C2       0.10395    0.75267    0.24977   1.00
C3       0.08403    0.72680    0.27489   1.00
O2       0.10326    0.70959    0.30579   1.00
C3       0.08174    0.77588    0.22383   1.00
H1       0.09615    0.79523    0.20353   1.00
C3a      0.04287    0.72544    0.27430   1.00
H1       0.02798    0.70713    0.29525   1.00
C3b      0.04078    0.77536    0.22418   1.00
C4       0.02100    0.75008    0.24959   1.00
O3       -0.02167   0.80463    0.29551   1.00
C5       0.11280    0.67059    0.29669   1.00
H2       0.08609    0.65310    0.29014   1.00
C5       0.13326    0.65352    0.33231   1.00
H2       0.13274    0.66916    0.27103   1.00
H2       0.11068    0.64530    0.35419   1.00
H2       0.15093    0.67729    0.34571   1.00
C5       0.15918    0.61820    0.32238   1.00
H2       0.14176    0.59609    0.30629   1.00
C5       0.17547    0.59937    0.35977   1.00
H2       0.18493    0.62702    0.30438   1.00
C5       0.00983    0.82164    0.35463   1.00
H2       -0.01215   0.84385    0.36359   1.00
H2       0.03048    0.83641    0.33432   1.00
C5       0.03200    0.80576    0.39033   1.00
C5       0.04775    0.83984    0.41499   1.00
H2       -0.19286   0.62955    0.10609   1.00
H2       -0.18447   0.66094    0.06258   1.00
H2       -0.14323   0.63311    0.08433   1.00
H2       -0.03105   0.95890    0.17253   1.00
H2       -0.00551   0.93107    0.13351   1.00
H2       -0.05293   0.91318    0.15302   1.00
H2       0.20613    0.58788    0.35395   1.00
H2       0.17656    0.62207    0.38405   1.00
H2       0.15577    0.57421    0.36900   1.00
H2       0.04366    0.86836    0.39837   1.00
H2       0.03116    0.84130    0.44377   1.00
H2       0.08010    0.83510    0.42107   1.00
C5       0.63218    0.67285    0.35061   1.00
H2       0.64745    0.65760    0.32645   1.00
H2       0.61090    0.65150    0.36252   1.00
C5       0.66194    0.68456    0.38216   1.00
C5       0.67123    0.64978    0.40903   1.00
H2       0.65015    0.70895    0.40008   1.00
O3       0.48000    0.79801    0.30206   1.00
C4       0.52100    0.74992    0.24959   1.00
C3c      0.54243    0.72379    0.27276   1.00
H1       0.52725    0.70303    0.29102   1.00
C3d      0.54135    0.77636    0.22558   1.00
C3       0.58354    0.72433    0.27323   1.00
O2       0.60248    0.69487    0.29287   1.00
C3       0.58227    0.77748    0.22654   1.00
H1       0.59657    0.79919    0.20867   1.00
C2       0.60439    0.75155    0.25012   1.00
C5       0.47879    0.83736    0.28991   1.00
H2       0.44838    0.84879    0.28824   1.00
H2       0.49266    0.84104    0.26068   1.00
C5       0.50129    0.86140    0.31982   1.00
H2       0.53137    0.84929    0.32230   1.00
H2       0.48698    0.85781    0.34881   1.00
C5       0.50262    0.90473    0.30802   1.00
H2       0.47268    0.91694    0.30523   1.00
H2       0.51811    0.90849    0.27973   1.00
C5       0.52445    0.92851    0.33927   1.00
C5       0.51105    0.78936    0.16776   1.00
C5       0.61070    0.70681    0.33150   1.00
H2       0.49088    0.76413    0.17088   1.00
H2       0.53712    0.77984    0.15074   1.00
H2       0.58300    0.71305    0.34744   1.00
H2       0.62895    0.73386    0.33261   1.00
H2       0.69030    0.69371    0.36886   1.00
H2       0.44247    0.78765    0.11871   1.00
H2       0.48763    0.78799    0.09088   1.00
C2       0.39605    0.75267    0.25023   1.00
C3       0.41597    0.72680    0.22511   1.00
O2       0.39674    0.70959    0.19421   1.00
C3       0.41826    0.77588    0.27617   1.00
H1       0.40385    0.79523    0.29647   1.00
C3a      0.45713    0.72544    0.22570   1.00
H1       0.47202    0.70713    0.20475   1.00
C3b      0.45922    0.77536    0.27582   1.00
C4       0.47900    0.75008    0.25041   1.00
O3       0.52167    0.80463    0.20449   1.00
C5       0.38720    0.67059    0.20331   1.00
H2       0.41391    0.65310    0.20986   1.00
C5       0.36674    0.65352    0.16769   1.00
H2       0.36726    0.66916    0.22897   1.00
H2       0.38932    0.64530    0.14581   1.00
H2       0.34907    0.67729    0.15429   1.00
C5       0.34082    0.61820    0.17762   1.00
H2       0.35824    0.59609    0.19371   1.00
C5       0.32453    0.59937    0.14023   1.00
H2       0.31507    0.62702    0.19562   1.00
C5       0.49017    0.82164    0.14537   1.00
H2       0.51215    0.84385    0.13641   1.00
H2       0.46952    0.83641    0.16568   1.00
C5       0.46800    0.80576    0.10967   1.00
C5       0.45225    0.83984    0.08501   1.00
H2       0.69286    0.62955    0.39391   1.00
H2       0.68447    0.66094    0.43742   1.00
H2       0.64323    0.63311    0.41567   1.00
H2       0.53105    0.95890    0.32747   1.00
H2       0.50551    0.93107    0.36649   1.00
H2       0.55293    0.91318    0.34698   1.00
H2       0.29387    0.58788    0.14605   1.00
H2       0.32344    0.62207    0.11595   1.00
H2       0.34423    0.57421    0.13100   1.00
H2       0.45634    0.86836    0.10163   1.00
H2       0.46884    0.84130    0.05623   1.00
H2       0.41990    0.83510    0.07893   1.00
C5       0.14939    0.36782    0.17285   1.00
H2       0.17355    0.35255    0.15760   1.00
H2       0.13748    0.38910    0.15150   1.00
C5       0.11784    0.33806    0.18456   1.00
C5       0.09097    0.32877    0.14978   1.00
H2       0.09992    0.34985    0.20895   1.00
O3       0.19794    0.52000    0.29801   1.00
C4       0.25041    0.47900    0.24992   1.00
C3c      0.22724    0.45757    0.22379   1.00
H1       0.20898    0.47275    0.20303   1.00
C3d      0.27442    0.45865    0.27636   1.00
C3       0.22677    0.41646    0.22433   1.00
O2       0.20713    0.39752    0.19487   1.00
C3       0.27346    0.41773    0.27748   1.00
H1       0.29133    0.40343    0.29919   1.00
C2       0.24988    0.39561    0.25155   1.00
C5       0.21009    0.52121    0.33736   1.00
H2       0.21176    0.55162    0.34879   1.00
H2       0.23932    0.50734    0.34104   1.00
C5       0.18018    0.49871    0.36140   1.00
H2       0.17770    0.46863    0.34929   1.00
H2       0.15119    0.51302    0.35781   1.00
C5       0.19198    0.49738    0.40473   1.00
H2       0.19477    0.52732    0.41694   1.00
H2       0.22027    0.48189    0.40849   1.00
C5       0.16073    0.47555    0.42851   1.00
C5       0.33224    0.48895    0.28936   1.00
C5       0.16850    0.38930    0.20681   1.00
H2       0.32912    0.50912    0.26413   1.00
H2       0.34926    0.46288    0.27984   1.00
H2       0.15256    0.41700    0.21305   1.00
H2       0.16739    0.37105    0.23386   1.00
H2       0.13114    0.30970    0.19371   1.00
H2       0.38129    0.55753    0.28765   1.00
H2       0.40912    0.51237    0.28799   1.00
C2       0.24977    0.60395    0.25267   1.00
C3       0.27489    0.58403    0.22680   1.00
O2       0.30579    0.60326    0.20959   1.00
C3       0.22383    0.58174    0.27588   1.00
H1       0.20353    0.59615    0.29523   1.00
C3a      0.27430    0.54287    0.22544   1.00
H1       0.29525    0.52798    0.20713   1.00
C3b      0.22418    0.54078    0.27536   1.00
C4       0.24959    0.52100    0.25008   1.00
O3       0.29551    0.47833    0.30463   1.00
C5       0.29669    0.61280    0.17059   1.00
H2       0.29014    0.58609    0.15310   1.00
C5       0.33231    0.63326    0.15352   1.00
H2       0.27103    0.63274    0.16916   1.00
H2       0.35419    0.61068    0.14530   1.00
H2       0.34571    0.65093    0.17729   1.00
C5       0.32238    0.65918    0.11820   1.00
H2       0.30629    0.64176    0.09609   1.00
C5       0.35977    0.67547    0.09937   1.00
H2       0.30438    0.68493    0.12702   1.00
C5       0.35463    0.50983    0.32164   1.00
H2       0.36359    0.48785    0.34385   1.00
H2       0.33432    0.53048    0.33641   1.00
C5       0.39033    0.53200    0.30576   1.00
C5       0.41499    0.54775    0.33984   1.00
H2       0.10609    0.30714    0.12955   1.00
H2       0.06258    0.31553    0.16094   1.00
H2       0.08433    0.35677    0.13311   1.00
H2       0.17253    0.46895    0.45890   1.00
H2       0.13351    0.49449    0.43107   1.00
H2       0.15302    0.44707    0.41318   1.00
H2       0.35395    0.70613    0.08788   1.00
H2       0.38405    0.67656    0.12207   1.00
H2       0.36900    0.65577    0.07421   1.00
H2       0.39837    0.54366    0.36836   1.00
H2       0.44377    0.53116    0.34130   1.00
H2       0.42107    0.58010    0.33510   1.00
C5       0.17285    0.64939    -0.13218   1.00
H2       0.15760    0.67355    -0.14745   1.00
H2       0.15150    0.63748    -0.11090   1.00
C5       0.18456    0.61784    -0.16194   1.00
C5       0.14978    0.59097    -0.17123   1.00
H2       0.20895    0.59992    -0.15015   1.00
O3       0.29801    0.69794    0.02000   1.00
C4       0.24992    0.75041    -0.02100   1.00
C3c      0.22379    0.72724    -0.04243   1.00
H1       0.20303    0.70898    -0.02725   1.00
C3d      0.27636    0.77442    -0.04135   1.00
C3       0.22433    0.72677    -0.08354   1.00
O2       0.19487    0.70713    -0.10248   1.00
C3       0.27748    0.77346    -0.08227   1.00
H1       0.29919    0.79133    -0.09657   1.00
C2       0.25155    0.74988    -0.10439   1.00
C5       0.33736    0.71009    0.02121   1.00
H2       0.34879    0.71176    0.05162   1.00
H2       0.34104    0.73932    0.00734   1.00
C5       0.36140    0.68018    -0.00129   1.00
H2       0.34929    0.67770    -0.03137   1.00
H2       0.35781    0.65119    0.01302   1.00
C5       0.40473    0.69198    -0.00262   1.00
H2       0.41694    0.69477    0.02732   1.00
H2       0.40849    0.72027    -0.01811   1.00
C5       0.42851    0.66073    -0.02445   1.00
C5       0.28936    0.83224    -0.01105   1.00
C5       0.20681    0.66850    -0.11070   1.00
H2       0.26413    0.82912    0.00912   1.00
H2       0.27984    0.84926    -0.03712   1.00
H2       0.21305    0.65256    -0.08300   1.00
H2       0.23386    0.66739    -0.12895   1.00
H2       0.19371    0.63114    -0.19030   1.00
H2       0.28765    0.88129    0.05753   1.00
H2       0.28799    0.90912    0.01237   1.00
C2       0.25267    0.74977    0.10395   1.00
C3       0.22680    0.77489    0.08403   1.00
O2       0.20959    0.80579    0.10326   1.00
C3       0.27588    0.72383    0.08174   1.00
H1       0.29523    0.70353    0.09615   1.00
C3a      0.22544    0.77430    0.04287   1.00
H1       0.20713    0.79525    0.02798   1.00
C3b      0.27536    0.72418    0.04078   1.00
C4       0.25008    0.74959    0.02100   1.00
O3       0.30463    0.79551    -0.02167   1.00
C5       0.17059    0.79669    0.11280   1.00
H2       0.15310    0.79014    0.08609   1.00
C5       0.15352    0.83231    0.13326   1.00
H2       0.16916    0.77103    0.13274   1.00
H2       0.14530    0.85419    0.11068   1.00
H2       0.17729    0.84571    0.15093   1.00
C5       0.11820    0.82238    0.15918   1.00
H2       0.09609    0.80629    0.14176   1.00
C5       0.09937    0.85977    0.17547   1.00
H2       0.12702    0.80438    0.18493   1.00
C5       0.32164    0.85463    0.00983   1.00
H2       0.34385    0.86359    -0.01215   1.00
H2       0.33641    0.83432    0.03048   1.00
C5       0.30576    0.89033    0.03200   1.00
C5       0.33984    0.91499    0.04775   1.00
H2       0.12955    0.60609    -0.19286   1.00
H2       0.16094    0.56258    -0.18447   1.00
H2       0.13311    0.58433    -0.14323   1.00
H2       0.45890    0.67253    -0.03105   1.00
H2       0.43107    0.63351    -0.00551   1.00
H2       0.41318    0.65302    -0.05293   1.00
H2       0.08788    0.85395    0.20613   1.00
H2       0.12207    0.88405    0.17656   1.00
H2       0.07421    0.86900    0.15577   1.00
H2       0.36836    0.89837    0.04366   1.00
H2       0.34130    0.94377    0.03116   1.00
H2       0.33510    0.92107    0.08010   1.00
C5       0.67285    0.35061    0.63218   1.00
H2       0.65760    0.32645    0.64745   1.00
H2       0.65150    0.36252    0.61090   1.00
C5       0.68456    0.38216    0.66194   1.00
C5       0.64978    0.40903    0.67123   1.00
H2       0.70895    0.40008    0.65015   1.00
O3       0.79801    0.30206    0.48000   1.00
C4       0.74992    0.24959    0.52100   1.00
C3c      0.72379    0.27276    0.54243   1.00
H1       0.70303    0.29102    0.52725   1.00
C3d      0.77636    0.22558    0.54135   1.00
C3       0.72433    0.27323    0.58354   1.00
O2       0.69487    0.29287    0.60248   1.00
C3       0.77748    0.22654    0.58227   1.00
H1       0.79919    0.20867    0.59657   1.00
C2       0.75155    0.25012    0.60439   1.00
C5       0.83736    0.28991    0.47879   1.00
H2       0.84879    0.28824    0.44838   1.00
H2       0.84104    0.26068    0.49266   1.00
C5       0.86140    0.31982    0.50129   1.00
H2       0.84929    0.32230    0.53137   1.00
H2       0.85781    0.34881    0.48698   1.00
C5       0.90473    0.30802    0.50262   1.00
H2       0.91694    0.30523    0.47268   1.00
H2       0.90849    0.27973    0.51811   1.00
C5       0.92851    0.33927    0.52445   1.00
C5       0.78936    0.16776    0.51105   1.00
C5       0.70681    0.33150    0.61070   1.00
H2       0.76413    0.17088    0.49088   1.00
H2       0.77984    0.15074    0.53712   1.00
H2       0.71305    0.34744    0.58300   1.00
H2       0.73386    0.33261    0.62895   1.00
H2       0.69371    0.36886    0.69030   1.00
H2       0.78765    0.11871    0.44247   1.00
H2       0.78799    0.09088    0.48763   1.00
C2       0.75267    0.25023    0.39605   1.00
C3       0.72680    0.22511    0.41597   1.00
O2       0.70959    0.19421    0.39674   1.00
C3       0.77588    0.27617    0.41826   1.00
H1       0.79523    0.29647    0.40385   1.00
C3a      0.72544    0.22570    0.45713   1.00
H1       0.70713    0.20475    0.47202   1.00
C3b      0.77536    0.27582    0.45922   1.00
C4       0.75008    0.25041    0.47900   1.00
O3       0.80463    0.20449    0.52167   1.00
C5       0.67059    0.20331    0.38720   1.00
H2       0.65310    0.20986    0.41391   1.00
C5       0.65352    0.16769    0.36674   1.00
H2       0.66916    0.22897    0.36726   1.00
H2       0.64530    0.14581    0.38932   1.00
H2       0.67729    0.15429    0.34907   1.00
C5       0.61820    0.17762    0.34082   1.00
H2       0.59609    0.19371    0.35824   1.00
C5       0.59937    0.14023    0.32453   1.00
H2       0.62702    0.19562    0.31507   1.00
C5       0.82164    0.14537    0.49017   1.00
H2       0.84385    0.13641    0.51215   1.00
H2       0.83641    0.16568    0.46952   1.00
C5       0.80576    0.10967    0.46800   1.00
C5       0.83984    0.08501    0.45225   1.00
H2       0.62955    0.39391    0.69286   1.00
H2       0.66094    0.43742    0.68447   1.00
H2       0.63311    0.41567    0.64323   1.00
H2       0.95890    0.32747    0.53105   1.00
H2       0.93107    0.36649    0.50551   1.00
H2       0.91318    0.34698    0.55293   1.00
H2       0.58788    0.14605    0.29387   1.00
H2       0.62207    0.11595    0.32344   1.00
H2       0.57421    0.13100    0.34423   1.00
H2       0.86836    0.10163    0.45634   1.00
H2       0.84130    0.05623    0.46884   1.00
H2       0.83510    0.07893    0.41990   1.00
C5       0.85061    0.63218    0.17285   1.00
H2       0.82645    0.64745    0.15760   1.00
H2       0.86252    0.61090    0.15150   1.00
C5       0.88216    0.66194    0.18456   1.00
C5       0.90903    0.67123    0.14978   1.00
H2       0.90008    0.65015    0.20895   1.00
O3       0.80206    0.48000    0.29801   1.00
C4       0.74959    0.52100    0.24992   1.00
C3c      0.77276    0.54243    0.22379   1.00
H1       0.79102    0.52725    0.20303   1.00
C3d      0.72558    0.54135    0.27636   1.00
C3       0.77323    0.58354    0.22433   1.00
O2       0.79287    0.60248    0.19487   1.00
C3       0.72654    0.58227    0.27748   1.00
H1       0.70867    0.59657    0.29919   1.00
C2       0.75012    0.60439    0.25155   1.00
C5       0.78991    0.47879    0.33736   1.00
H2       0.78824    0.44838    0.34879   1.00
H2       0.76068    0.49266    0.34104   1.00
C5       0.81982    0.50129    0.36140   1.00
H2       0.82230    0.53137    0.34929   1.00
H2       0.84881    0.48698    0.35781   1.00
C5       0.80802    0.50262    0.40473   1.00
H2       0.80523    0.47268    0.41694   1.00
H2       0.77973    0.51811    0.40849   1.00
C5       0.83927    0.52445    0.42851   1.00
C5       0.66776    0.51105    0.28936   1.00
C5       0.83150    0.61070    0.20681   1.00
H2       0.67088    0.49088    0.26413   1.00
H2       0.65074    0.53712    0.27984   1.00
H2       0.84744    0.58300    0.21305   1.00
H2       0.83261    0.62895    0.23386   1.00
H2       0.86886    0.69030    0.19371   1.00
H2       0.61871    0.44247    0.28765   1.00
H2       0.59088    0.48763    0.28799   1.00
C2       0.75023    0.39605    0.25267   1.00
C3       0.72511    0.41597    0.22680   1.00
O2       0.69421    0.39674    0.20959   1.00
C3       0.77617    0.41826    0.27588   1.00
H1       0.79647    0.40385    0.29523   1.00
C3a      0.72570    0.45713    0.22544   1.00
H1       0.70475    0.47202    0.20713   1.00
C3b      0.77582    0.45922    0.27536   1.00
C4       0.75041    0.47900    0.25008   1.00
O3       0.70449    0.52167    0.30463   1.00
C5       0.70331    0.38720    0.17059   1.00
H2       0.70986    0.41391    0.15310   1.00
C5       0.66769    0.36674    0.15352   1.00
H2       0.72897    0.36726    0.16916   1.00
H2       0.64581    0.38932    0.14530   1.00
H2       0.65429    0.34907    0.17729   1.00
C5       0.67762    0.34082    0.11820   1.00
H2       0.69371    0.35824    0.09609   1.00
C5       0.64023    0.32453    0.09937   1.00
H2       0.69562    0.31507    0.12702   1.00
C5       0.64537    0.49017    0.32164   1.00
H2       0.63641    0.51215    0.34385   1.00
H2       0.66568    0.46952    0.33641   1.00
C5       0.60967    0.46800    0.30576   1.00
C5       0.58501    0.45225    0.33984   1.00
H2       0.89391    0.69286    0.12955   1.00
H2       0.93742    0.68447    0.16094   1.00
H2       0.91567    0.64323    0.13311   1.00
H2       0.82747    0.53105    0.45890   1.00
H2       0.86649    0.50551    0.43107   1.00
H2       0.84698    0.55293    0.41318   1.00
H2       0.64605    0.29387    0.08788   1.00
H2       0.61595    0.32344    0.12207   1.00
H2       0.63100    0.34423    0.07421   1.00
H2       0.60163    0.45634    0.36836   1.00
H2       0.55623    0.46884    0.34130   1.00
H2       0.57893    0.41990    0.33510   1.00
C5       0.36782    0.17285    0.14939   1.00
H2       0.35255    0.15760    0.17355   1.00
H2       0.38910    0.15150    0.13748   1.00
C5       0.33806    0.18456    0.11784   1.00
C5       0.32877    0.14978    0.09097   1.00
H2       0.34985    0.20895    0.09992   1.00
O3       0.52000    0.29801    0.19794   1.00
C4       0.47900    0.24992    0.25041   1.00
C3c      0.45757    0.22379    0.22724   1.00
H1       0.47275    0.20303    0.20898   1.00
C3d      0.45865    0.27636    0.27442   1.00
C3       0.41646    0.22433    0.22677   1.00
O2       0.39752    0.19487    0.20713   1.00
C3       0.41773    0.27748    0.27346   1.00
H1       0.40343    0.29919    0.29133   1.00
C2       0.39561    0.25155    0.24988   1.00
C5       0.52121    0.33736    0.21009   1.00
H2       0.55162    0.34879    0.21176   1.00
H2       0.50734    0.34104    0.23932   1.00
C5       0.49871    0.36140    0.18018   1.00
H2       0.46863    0.34929    0.17770   1.00
H2       0.51302    0.35781    0.15119   1.00
C5       0.49738    0.40473    0.19198   1.00
H2       0.52732    0.41694    0.19477   1.00
H2       0.48189    0.40849    0.22027   1.00
C5       0.47555    0.42851    0.16073   1.00
C5       0.48895    0.28936    0.33224   1.00
C5       0.38930    0.20681    0.16850   1.00
H2       0.50912    0.26413    0.32912   1.00
H2       0.46288    0.27984    0.34926   1.00
H2       0.41700    0.21305    0.15256   1.00
H2       0.37105    0.23386    0.16739   1.00
H2       0.30970    0.19371    0.13114   1.00
H2       0.55753    0.28765    0.38129   1.00
H2       0.51237    0.28799    0.40912   1.00
C2       0.60395    0.25267    0.24977   1.00
C3       0.58403    0.22680    0.27489   1.00
O2       0.60326    0.20959    0.30579   1.00
C3       0.58174    0.27588    0.22383   1.00
H1       0.59615    0.29523    0.20353   1.00
C3a      0.54287    0.22544    0.27430   1.00
H1       0.52798    0.20713    0.29525   1.00
C3b      0.54078    0.27536    0.22418   1.00
C4       0.52100    0.25008    0.24959   1.00
O3       0.47833    0.30463    0.29551   1.00
C5       0.61280    0.17059    0.29669   1.00
H2       0.58609    0.15310    0.29014   1.00
C5       0.63326    0.15352    0.33231   1.00
H2       0.63274    0.16916    0.27103   1.00
H2       0.61068    0.14530    0.35419   1.00
H2       0.65093    0.17729    0.34571   1.00
C5       0.65918    0.11820    0.32238   1.00
H2       0.64176    0.09609    0.30629   1.00
C5       0.67547    0.09937    0.35977   1.00
H2       0.68493    0.12702    0.30438   1.00
C5       0.50983    0.32164    0.35463   1.00
H2       0.48785    0.34385    0.36359   1.00
H2       0.53048    0.33641    0.33432   1.00
C5       0.53200    0.30576    0.39033   1.00
C5       0.54775    0.33984    0.41499   1.00
H2       0.30714    0.12955    0.10609   1.00
H2       0.31553    0.16094    0.06258   1.00
H2       0.35677    0.13311    0.08433   1.00
H2       0.46895    0.45890    0.17253   1.00
H2       0.49449    0.43107    0.13351   1.00
H2       0.44707    0.41318    0.15302   1.00
H2       0.70613    0.08788    0.35395   1.00
H2       0.67656    0.12207    0.38405   1.00
H2       0.65577    0.07421    0.36900   1.00
H2       0.54366    0.36836    0.39837   1.00
H2       0.53116    0.34130    0.44377   1.00
H2       0.58010    0.33510    0.42107   1.00
C5       1.13218    0.17285    0.35061   1.00
H2       1.14745    0.15760    0.32645   1.00
H2       1.11090    0.15150    0.36252   1.00
C5       1.16194    0.18456    0.38216   1.00
C5       1.17123    0.14978    0.40903   1.00
H2       1.15015    0.20895    0.40008   1.00
O3       0.98000    0.29801    0.30206   1.00
C4       1.02100    0.24992    0.24959   1.00
C3c      1.04243    0.22379    0.27276   1.00
H1       1.02725    0.20303    0.29102   1.00
C3d      1.04135    0.27636    0.22558   1.00
C3       1.08354    0.22433    0.27323   1.00
O2       1.10248    0.19487    0.29287   1.00
C3       1.08227    0.27748    0.22654   1.00
H1       1.09657    0.29919    0.20867   1.00
C2       1.10439    0.25155    0.25012   1.00
C5       0.97879    0.33736    0.28991   1.00
H2       0.94838    0.34879    0.28824   1.00
H2       0.99266    0.34104    0.26068   1.00
C5       1.00129    0.36140    0.31982   1.00
H2       1.03137    0.34929    0.32230   1.00
H2       0.98698    0.35781    0.34881   1.00
C5       1.00262    0.40473    0.30802   1.00
H2       0.97268    0.41694    0.30523   1.00
H2       1.01811    0.40849    0.27973   1.00
C5       1.02445    0.42851    0.33927   1.00
C5       1.01105    0.28936    0.16776   1.00
C5       1.11070    0.20681    0.33150   1.00
H2       0.99088    0.26413    0.17088   1.00
H2       1.03712    0.27984    0.15074   1.00
H2       1.08300    0.21305    0.34744   1.00
H2       1.12895    0.23386    0.33261   1.00
H2       1.19030    0.19371    0.36886   1.00
H2       0.94247    0.28765    0.11871   1.00
H2       0.98763    0.28799    0.09088   1.00
C2       0.89605    0.25267    0.25023   1.00
C3       0.91597    0.22680    0.22511   1.00
O2       0.89674    0.20959    0.19421   1.00
C3       0.91826    0.27588    0.27617   1.00
H1       0.90385    0.29523    0.29647   1.00
C3a      0.95713    0.22544    0.22570   1.00
H1       0.97202    0.20713    0.20475   1.00
C3b      0.95922    0.27536    0.27582   1.00
C4       0.97900    0.25008    0.25041   1.00
O3       1.02167    0.30463    0.20449   1.00
C5       0.88720    0.17059    0.20331   1.00
H2       0.91391    0.15310    0.20986   1.00
C5       0.86674    0.15352    0.16769   1.00
H2       0.86726    0.16916    0.22897   1.00
H2       0.88932    0.14530    0.14581   1.00
H2       0.84907    0.17729    0.15429   1.00
C5       0.84082    0.11820    0.17762   1.00
H2       0.85824    0.09609    0.19371   1.00
C5       0.82453    0.09937    0.14023   1.00
H2       0.81507    0.12702    0.19562   1.00
C5       0.99017    0.32164    0.14537   1.00
H2       1.01215    0.34385    0.13641   1.00
H2       0.96952    0.33641    0.16568   1.00
C5       0.96800    0.30576    0.10967   1.00
C5       0.95225    0.33984    0.08501   1.00
H2       1.19286    0.12955    0.39391   1.00
H2       1.18447    0.16094    0.43742   1.00
H2       1.14323    0.13311    0.41567   1.00
H2       1.03105    0.45890    0.32747   1.00
H2       1.00551    0.43107    0.36649   1.00
H2       1.05293    0.41318    0.34698   1.00
H2       0.79387    0.08788    0.14605   1.00
H2       0.82344    0.12207    0.11595   1.00
H2       0.84423    0.07421    0.13100   1.00
H2       0.95634    0.36836    0.10163   1.00
H2       0.96884    0.34130    0.05623   1.00
H2       0.91990    0.33510    0.07893   1.00
C5       0.64939    -0.13218   0.17285   1.00
H2       0.67355    -0.14745   0.15760   1.00
H2       0.63748    -0.11090   0.15150   1.00
C5       0.61784    -0.16194   0.18456   1.00
C5       0.59097    -0.17123   0.14978   1.00
H2       0.59992    -0.15015   0.20895   1.00
O3       0.69794    0.02000    0.29801   1.00
C4       0.75041    -0.02100   0.24992   1.00
C3c      0.72724    -0.04243   0.22379   1.00
H1       0.70898    -0.02725   0.20303   1.00
C3d      0.77442    -0.04135   0.27636   1.00
C3       0.72677    -0.08354   0.22433   1.00
O2       0.70713    -0.10248   0.19487   1.00
C3       0.77346    -0.08227   0.27748   1.00
H1       0.79133    -0.09657   0.29919   1.00
C2       0.74988    -0.10439   0.25155   1.00
C5       0.71009    0.02121    0.33736   1.00
H2       0.71176    0.05162    0.34879   1.00
H2       0.73932    0.00734    0.34104   1.00
C5       0.68018    -0.00129   0.36140   1.00
H2       0.67770    -0.03137   0.34929   1.00
H2       0.65119    0.01302    0.35781   1.00
C5       0.69198    -0.00262   0.40473   1.00
H2       0.69477    0.02732    0.41694   1.00
H2       0.72027    -0.01811   0.40849   1.00
C5       0.66073    -0.02445   0.42851   1.00
C5       0.83224    -0.01105   0.28936   1.00
C5       0.66850    -0.11070   0.20681   1.00
H2       0.82912    0.00912    0.26413   1.00
H2       0.84926    -0.03712   0.27984   1.00
H2       0.65256    -0.08300   0.21305   1.00
H2       0.66739    -0.12895   0.23386   1.00
H2       0.63114    -0.19030   0.19371   1.00
H2       0.88129    0.05753    0.28765   1.00
H2       0.90912    0.01237    0.28799   1.00
C2       0.74977    0.10395    0.25267   1.00
C3       0.77489    0.08403    0.22680   1.00
O2       0.80579    0.10326    0.20959   1.00
C3       0.72383    0.08174    0.27588   1.00
H1       0.70353    0.09615    0.29523   1.00
C3a      0.77430    0.04287    0.22544   1.00
H1       0.79525    0.02798    0.20713   1.00
C3b      0.72418    0.04078    0.27536   1.00
C4       0.74959    0.02100    0.25008   1.00
O3       0.79551    -0.02167   0.30463   1.00
C5       0.79669    0.11280    0.17059   1.00
H2       0.79014    0.08609    0.15310   1.00
C5       0.83231    0.13326    0.15352   1.00
H2       0.77103    0.13274    0.16916   1.00
H2       0.85419    0.11068    0.14530   1.00
H2       0.84571    0.15093    0.17729   1.00
C5       0.82238    0.15918    0.11820   1.00
H2       0.80629    0.14176    0.09609   1.00
C5       0.85977    0.17547    0.09937   1.00
H2       0.80438    0.18493    0.12702   1.00
C5       0.85463    0.00983    0.32164   1.00
H2       0.86359    -0.01215   0.34385   1.00
H2       0.83432    0.03048    0.33641   1.00
C5       0.89033    0.03200    0.30576   1.00
C5       0.91499    0.04775    0.33984   1.00
H2       0.60609    -0.19286   0.12955   1.00
H2       0.56258    -0.18447   0.16094   1.00
H2       0.58433    -0.14323   0.13311   1.00
H2       0.67253    -0.03105   0.45890   1.00
H2       0.63351    -0.00551   0.43107   1.00
H2       0.65302    -0.05293   0.41318   1.00
H2       0.85395    0.20613    0.08788   1.00
H2       0.88405    0.17656    0.12207   1.00
H2       0.86900    0.15577    0.07421   1.00
H2       0.89837    0.04366    0.36836   1.00
H2       0.94377    0.03116    0.34130   1.00
H2       0.92107    0.08010    0.33510   1.00
C5       0.67285    0.14939    -0.13218   1.00
H2       0.65760    0.17355    -0.14745   1.00
H2       0.65150    0.13748    -0.11090   1.00
C5       0.68456    0.11784    -0.16194   1.00
C5       0.64978    0.09097    -0.17123   1.00
H2       0.70895    0.09992    -0.15015   1.00
O3       0.79801    0.19794    0.02000   1.00
C4       0.74992    0.25041    -0.02100   1.00
C3c      0.72379    0.22724    -0.04243   1.00
H1       0.70303    0.20898    -0.02725   1.00
C3d      0.77636    0.27442    -0.04135   1.00
C3       0.72433    0.22677    -0.08354   1.00
O2       0.69487    0.20713    -0.10248   1.00
C3       0.77748    0.27346    -0.08227   1.00
H1       0.79919    0.29133    -0.09657   1.00
C2       0.75155    0.24988    -0.10439   1.00
C5       0.83736    0.21009    0.02121   1.00
H2       0.84879    0.21176    0.05162   1.00
H2       0.84104    0.23932    0.00734   1.00
C5       0.86140    0.18018    -0.00129   1.00
H2       0.84929    0.17770    -0.03137   1.00
H2       0.85781    0.15119    0.01302   1.00
C5       0.90473    0.19198    -0.00262   1.00
H2       0.91694    0.19477    0.02732   1.00
H2       0.90849    0.22027    -0.01811   1.00
C5       0.92851    0.16073    -0.02445   1.00
C5       0.78936    0.33224    -0.01105   1.00
C5       0.70681    0.16850    -0.11070   1.00
H2       0.76413    0.32912    0.00912   1.00
H2       0.77984    0.34926    -0.03712   1.00
H2       0.71305    0.15256    -0.08300   1.00
H2       0.73386    0.16739    -0.12895   1.00
H2       0.69371    0.13114    -0.19030   1.00
H2       0.78765    0.38129    0.05753   1.00
H2       0.78799    0.40912    0.01237   1.00
C2       0.75267    0.24977    0.10395   1.00
C3       0.72680    0.27489    0.08403   1.00
O2       0.70959    0.30579    0.10326   1.00
C3       0.77588    0.22383    0.08174   1.00
H1       0.79523    0.20353    0.09615   1.00
C3a      0.72544    0.27430    0.04287   1.00
H1       0.70713    0.29525    0.02798   1.00
C3b      0.77536    0.22418    0.04078   1.00
C4       0.75008    0.24959    0.02100   1.00
O3       0.80463    0.29551    -0.02167   1.00
C5       0.67059    0.29669    0.11280   1.00
H2       0.65310    0.29014    0.08609   1.00
C5       0.65352    0.33231    0.13326   1.00
H2       0.66916    0.27103    0.13274   1.00
H2       0.64530    0.35419    0.11068   1.00
H2       0.67729    0.34571    0.15093   1.00
C5       0.61820    0.32238    0.15918   1.00
H2       0.59609    0.30629    0.14176   1.00
C5       0.59937    0.35977    0.17547   1.00
H2       0.62702    0.30438    0.18493   1.00
C5       0.82164    0.35463    0.00983   1.00
H2       0.84385    0.36359    -0.01215   1.00
H2       0.83641    0.33432    0.03048   1.00
C5       0.80576    0.39033    0.03200   1.00
C5       0.83984    0.41499    0.04775   1.00
H2       0.62955    0.10609    -0.19286   1.00
H2       0.66094    0.06258    -0.18447   1.00
H2       0.63311    0.08433    -0.14323   1.00
H2       0.95890    0.17253    -0.03105   1.00
H2       0.93107    0.13351    -0.00551   1.00
H2       0.91318    0.15302    -0.05293   1.00
H2       0.58788    0.35395    0.20613   1.00
H2       0.62207    0.38405    0.17656   1.00
H2       0.57421    0.36900    0.15577   1.00
H2       0.86836    0.39837    0.04366   1.00
H2       0.84130    0.44377    0.03116   1.00
H2       0.83510    0.42107    0.08010   1.00
C5       0.92285    1.10061    1.38218   1.00
H2       0.90760    1.07645    1.39745   1.00
H2       0.90150    1.11252    1.36090   1.00
C5       0.93456    1.13216    1.41194   1.00
C5       0.89978    1.15903    1.42123   1.00
H2       0.95895    1.15008    1.40015   1.00
O3       1.04801    1.05206    1.23000   1.00
C4       0.99992    0.99959    1.27100   1.00
C3c      0.97379    1.02276    1.29243   1.00
H1       0.95303    1.04102    1.27725   1.00
C3d      1.02636    0.97558    1.29135   1.00
C3       0.97433    1.02323    1.33354   1.00
O2       0.94487    1.04287    1.35248   1.00
C3       1.02748    0.97654    1.33227   1.00
H1       1.04919    0.95867    1.34657   1.00
C2       1.00155    1.00012    1.35439   1.00
C5       1.08736    1.03991    1.22879   1.00
H2       1.09879    1.03824    1.19838   1.00
H2       1.09104    1.01068    1.24266   1.00
C5       1.11140    1.06982    1.25129   1.00
H2       1.09929    1.07230    1.28137   1.00
H2       1.10781    1.09881    1.23698   1.00
C5       1.15473    1.05802    1.25262   1.00
H2       1.16694    1.05523    1.22268   1.00
H2       1.15849    1.02973    1.26811   1.00
C5       1.17851    1.08927    1.27445   1.00
C5       1.03936    0.91776    1.26105   1.00
C5       0.95681    1.08150    1.36070   1.00
H2       1.01413    0.92088    1.24088   1.00
H2       1.02984    0.90074    1.28712   1.00
H2       0.96305    1.09744    1.33300   1.00
H2       0.98386    1.08261    1.37895   1.00
H2       0.94371    1.11886    1.44030   1.00
H2       1.03765    0.86871    1.19247   1.00
H2       1.03799    0.84088    1.23763   1.00
C2       1.00267    1.00023    1.14605   1.00
C3       0.97680    0.97511    1.16597   1.00
O2       0.95959    0.94421    1.14674   1.00
C3       1.02588    1.02617    1.16826   1.00
H1       1.04523    1.04647    1.15385   1.00
C3a      0.97544    0.97570    1.20713   1.00
H1       0.95713    0.95475    1.22202   1.00
C3b      1.02536    1.02582    1.20922   1.00
C4       1.00008    1.00041    1.22900   1.00
O3       1.05463    0.95449    1.27167   1.00
C5       0.92059    0.95331    1.13720   1.00
H2       0.90310    0.95986    1.16391   1.00
C5       0.90352    0.91769    1.11674   1.00
H2       0.91916    0.97897    1.11726   1.00
H2       0.89530    0.89581    1.13932   1.00
H2       0.92729    0.90429    1.09907   1.00
C5       0.86820    0.92762    1.09082   1.00
H2       0.84609    0.94371    1.10824   1.00
C5       0.84937    0.89023    1.07453   1.00
H2       0.87702    0.94562    1.06507   1.00
C5       1.07164    0.89537    1.24017   1.00
H2       1.09385    0.88641    1.26215   1.00
H2       1.08641    0.91568    1.21952   1.00
C5       1.05576    0.85967    1.21800   1.00
C5       1.08984    0.83501    1.20225   1.00
H2       0.87955    1.14391    1.44286   1.00
H2       0.91094    1.18742    1.43447   1.00
H2       0.88311    1.16567    1.39323   1.00
H2       1.20890    1.07747    1.28105   1.00
H2       1.18107    1.11649    1.25551   1.00
H2       1.16318    1.09698    1.30293   1.00
H2       0.83788    0.89605    1.04387   1.00
H2       0.87207    0.86595    1.07344   1.00
H2       0.82421    0.88100    1.09423   1.00
H2       1.11836    0.85163    1.20634   1.00
H2       1.09130    0.80623    1.21884   1.00
H2       1.08510    0.82893    1.16990   1.00
C5       1.10061    1.38218    0.92285   1.00
H2       1.07645    1.39745    0.90760   1.00
H2       1.11252    1.36090    0.90150   1.00
C5       1.13216    1.41194    0.93456   1.00
C5       1.15903    1.42123    0.89978   1.00
H2       1.15008    1.40015    0.95895   1.00
O3       1.05206    1.23000    1.04801   1.00
C4       0.99959    1.27100    0.99992   1.00
C3c      1.02276    1.29243    0.97379   1.00
H1       1.04102    1.27725    0.95303   1.00
C3d      0.97558    1.29135    1.02636   1.00
C3       1.02323    1.33354    0.97433   1.00
O2       1.04287    1.35248    0.94487   1.00
C3       0.97654    1.33227    1.02748   1.00
H1       0.95867    1.34657    1.04919   1.00
C2       1.00012    1.35439    1.00155   1.00
C5       1.03991    1.22879    1.08736   1.00
H2       1.03824    1.19838    1.09879   1.00
H2       1.01068    1.24266    1.09104   1.00
C5       1.06982    1.25129    1.11140   1.00
H2       1.07230    1.28137    1.09929   1.00
H2       1.09881    1.23698    1.10781   1.00
C5       1.05802    1.25262    1.15473   1.00
H2       1.05523    1.22268    1.16694   1.00
H2       1.02973    1.26811    1.15849   1.00
C5       1.08927    1.27445    1.17851   1.00
C5       0.91776    1.26105    1.03936   1.00
C5       1.08150    1.36070    0.95681   1.00
H2       0.92088    1.24088    1.01413   1.00
H2       0.90074    1.28712    1.02984   1.00
H2       1.09744    1.33300    0.96305   1.00
H2       1.08261    1.37895    0.98386   1.00
H2       1.11886    1.44030    0.94371   1.00
H2       0.86871    1.19247    1.03765   1.00
H2       0.84088    1.23763    1.03799   1.00
C2       1.00023    1.14605    1.00267   1.00
C3       0.97511    1.16597    0.97680   1.00
O2       0.94421    1.14674    0.95959   1.00
C3       1.02617    1.16826    1.02588   1.00
H1       1.04647    1.15385    1.04523   1.00
C3a      0.97570    1.20713    0.97544   1.00
H1       0.95475    1.22202    0.95713   1.00
C3b      1.02582    1.20922    1.02536   1.00
C4       1.00041    1.22900    1.00008   1.00
O3       0.95449    1.27167    1.05463   1.00
C5       0.95331    1.13720    0.92059   1.00
H2       0.95986    1.16391    0.90310   1.00
C5       0.91769    1.11674    0.90352   1.00
H2       0.97897    1.11726    0.91916   1.00
H2       0.89581    1.13932    0.89530   1.00
H2       0.90429    1.09907    0.92729   1.00
C5       0.92762    1.09082    0.86820   1.00
H2       0.94371    1.10824    0.84609   1.00
C5       0.89023    1.07453    0.84937   1.00
H2       0.94562    1.06507    0.87702   1.00
C5       0.89537    1.24017    1.07164   1.00
H2       0.88641    1.26215    1.09385   1.00
H2       0.91568    1.21952    1.08641   1.00
C5       0.85967    1.21800    1.05576   1.00
C5       0.83501    1.20225    1.08984   1.00
H2       1.14391    1.44286    0.87955   1.00
H2       1.18742    1.43447    0.91094   1.00
H2       1.16567    1.39323    0.88311   1.00
H2       1.07747    1.28105    1.20890   1.00
H2       1.11649    1.25551    1.18107   1.00
H2       1.09698    1.30293    1.16318   1.00
H2       0.89605    1.04387    0.83788   1.00
H2       0.86595    1.07344    0.87207   1.00
H2       0.88100    1.09423    0.82421   1.00
H2       0.85163    1.20634    1.11836   1.00
H2       0.80623    1.21884    1.09130   1.00
H2       0.82893    1.16990    1.08510   1.00
C5       0.61782    0.92285    0.89939   1.00
H2       0.60255    0.90760    0.92355   1.00
H2       0.63910    0.90150    0.88748   1.00
C5       0.58806    0.93456    0.86784   1.00
C5       0.57877    0.89978    0.84097   1.00
H2       0.59985    0.95895    0.84992   1.00
O3       0.77000    1.04801    0.94794   1.00
C4       0.72900    0.99992    1.00041   1.00
C3c      0.70757    0.97379    0.97724   1.00
H1       0.72275    0.95303    0.95898   1.00
C3d      0.70865    1.02636    1.02442   1.00
C3       0.66646    0.97433    0.97677   1.00
O2       0.64752    0.94487    0.95713   1.00
C3       0.66773    1.02748    1.02346   1.00
H1       0.65343    1.04919    1.04133   1.00
C2       0.64561    1.00155    0.99988   1.00
C5       0.77121    1.08736    0.96009   1.00
H2       0.80162    1.09879    0.96176   1.00
H2       0.75734    1.09104    0.98932   1.00
C5       0.74871    1.11140    0.93018   1.00
H2       0.71863    1.09929    0.92770   1.00
H2       0.76302    1.10781    0.90119   1.00
C5       0.74738    1.15473    0.94198   1.00
H2       0.77732    1.16694    0.94477   1.00
H2       0.73189    1.15849    0.97027   1.00
C5       0.72555    1.17851    0.91073   1.00
C5       0.73895    1.03936    1.08224   1.00
C5       0.63930    0.95681    0.91850   1.00
H2       0.75912    1.01413    1.07912   1.00
H2       0.71288    1.02984    1.09926   1.00
H2       0.66700    0.96305    0.90256   1.00
H2       0.62105    0.98386    0.91739   1.00
H2       0.55970    0.94371    0.88114   1.00
H2       0.80753    1.03765    1.13129   1.00
H2       0.76237    1.03799    1.15912   1.00
C2       0.85395    1.00267    0.99977   1.00
C3       0.83403    0.97680    1.02489   1.00
O2       0.85326    0.95959    1.05579   1.00
C3       0.83174    1.02588    0.97383   1.00
H1       0.84615    1.04523    0.95353   1.00
C3a      0.79287    0.97544    1.02430   1.00
H1       0.77798    0.95713    1.04525   1.00
C3b      0.79078    1.02536    0.97418   1.00
C4       0.77100    1.00008    0.99959   1.00
O3       0.72833    1.05463    1.04551   1.00
C5       0.86280    0.92059    1.04669   1.00
H2       0.83609    0.90310    1.04014   1.00
C5       0.88326    0.90352    1.08231   1.00
H2       0.88274    0.91916    1.02103   1.00
H2       0.86068    0.89530    1.10419   1.00
H2       0.90093    0.92729    1.09571   1.00
C5       0.90918    0.86820    1.07238   1.00
H2       0.89176    0.84609    1.05629   1.00
C5       0.92547    0.84937    1.10977   1.00
H2       0.93493    0.87702    1.05438   1.00
C5       0.75983    1.07164    1.10463   1.00
H2       0.73785    1.09385    1.11359   1.00
H2       0.78048    1.08641    1.08432   1.00
C5       0.78200    1.05576    1.14033   1.00
C5       0.79775    1.08984    1.16499   1.00
H2       0.55714    0.87955    0.85609   1.00
H2       0.56553    0.91094    0.81258   1.00
H2       0.60677    0.88311    0.83433   1.00
H2       0.71895    1.20890    0.92253   1.00
H2       0.74449    1.18107    0.88351   1.00
H2       0.69707    1.16318    0.90302   1.00
H2       0.95613    0.83788    1.10395   1.00
H2       0.92656    0.87207    1.13405   1.00
H2       0.90577    0.82421    1.11900   1.00
H2       0.79366    1.11836    1.14837   1.00
H2       0.78116    1.09130    1.19377   1.00
H2       0.83010    1.08510    1.17107   1.00
C5       1.38218    0.92285    1.10061   1.00
H2       1.39745    0.90760    1.07645   1.00
H2       1.36090    0.90150    1.11252   1.00
C5       1.41194    0.93456    1.13216   1.00
C5       1.42123    0.89978    1.15903   1.00
H2       1.40015    0.95895    1.15008   1.00
O3       1.23000    1.04801    1.05206   1.00
C4       1.27100    0.99992    0.99959   1.00
C3c      1.29243    0.97379    1.02276   1.00
H1       1.27725    0.95303    1.04102   1.00
C3d      1.29135    1.02636    0.97558   1.00
C3       1.33354    0.97433    1.02323   1.00
O2       1.35248    0.94487    1.04287   1.00
C3       1.33227    1.02748    0.97654   1.00
H1       1.34657    1.04919    0.95867   1.00
C2       1.35439    1.00155    1.00012   1.00
C5       1.22879    1.08736    1.03991   1.00
H2       1.19838    1.09879    1.03824   1.00
H2       1.24266    1.09104    1.01068   1.00
C5       1.25129    1.11140    1.06982   1.00
H2       1.28137    1.09929    1.07230   1.00
H2       1.23698    1.10781    1.09881   1.00
C5       1.25262    1.15473    1.05802   1.00
H2       1.22268    1.16694    1.05523   1.00
H2       1.26811    1.15849    1.02973   1.00
C5       1.27445    1.17851    1.08927   1.00
C5       1.26105    1.03936    0.91776   1.00
C5       1.36070    0.95681    1.08150   1.00
H2       1.24088    1.01413    0.92088   1.00
H2       1.28712    1.02984    0.90074   1.00
H2       1.33300    0.96305    1.09744   1.00
H2       1.37895    0.98386    1.08261   1.00
H2       1.44030    0.94371    1.11886   1.00
H2       1.19247    1.03765    0.86871   1.00
H2       1.23763    1.03799    0.84088   1.00
C2       1.14605    1.00267    1.00023   1.00
C3       1.16597    0.97680    0.97511   1.00
O2       1.14674    0.95959    0.94421   1.00
C3       1.16826    1.02588    1.02617   1.00
H1       1.15385    1.04523    1.04647   1.00
C3a      1.20713    0.97544    0.97570   1.00
H1       1.22202    0.95713    0.95475   1.00
C3b      1.20922    1.02536    1.02582   1.00
C4       1.22900    1.00008    1.00041   1.00
O3       1.27167    1.05463    0.95449   1.00
C5       1.13720    0.92059    0.95331   1.00
H2       1.16391    0.90310    0.95986   1.00
C5       1.11674    0.90352    0.91769   1.00
H2       1.11726    0.91916    0.97897   1.00
H2       1.13932    0.89530    0.89581   1.00
H2       1.09907    0.92729    0.90429   1.00
C5       1.09082    0.86820    0.92762   1.00
H2       1.10824    0.84609    0.94371   1.00
C5       1.07453    0.84937    0.89023   1.00
H2       1.06507    0.87702    0.94562   1.00
C5       1.24017    1.07164    0.89537   1.00
H2       1.26215    1.09385    0.88641   1.00
H2       1.21952    1.08641    0.91568   1.00
C5       1.21800    1.05576    0.85967   1.00
C5       1.20225    1.08984    0.83501   1.00
H2       1.44286    0.87955    1.14391   1.00
H2       1.43447    0.91094    1.18742   1.00
H2       1.39323    0.88311    1.16567   1.00
H2       1.28105    1.20890    1.07747   1.00
H2       1.25551    1.18107    1.11649   1.00
H2       1.30293    1.16318    1.09698   1.00
H2       1.04387    0.83788    0.89605   1.00
H2       1.07344    0.87207    0.86595   1.00
H2       1.09423    0.82421    0.88100   1.00
H2       1.20634    1.11836    0.85163   1.00
H2       1.21884    1.09130    0.80623   1.00
H2       1.16990    1.08510    0.82893   1.00
C5       0.89939    0.61782    0.92285   1.00
H2       0.92355    0.60255    0.90760   1.00
H2       0.88748    0.63910    0.90150   1.00
C5       0.86784    0.58806    0.93456   1.00
C5       0.84097    0.57877    0.89978   1.00
H2       0.84992    0.59985    0.95895   1.00
O3       0.94794    0.77000    1.04801   1.00
C4       1.00041    0.72900    0.99992   1.00
C3c      0.97724    0.70757    0.97379   1.00
H1       0.95898    0.72275    0.95303   1.00
C3d      1.02442    0.70865    1.02636   1.00
C3       0.97677    0.66646    0.97433   1.00
O2       0.95713    0.64752    0.94487   1.00
C3       1.02346    0.66773    1.02748   1.00
H1       1.04133    0.65343    1.04919   1.00
C2       0.99988    0.64561    1.00155   1.00
C5       0.96009    0.77121    1.08736   1.00
H2       0.96176    0.80162    1.09879   1.00
H2       0.98932    0.75734    1.09104   1.00
C5       0.93018    0.74871    1.11140   1.00
H2       0.92770    0.71863    1.09929   1.00
H2       0.90119    0.76302    1.10781   1.00
C5       0.94198    0.74738    1.15473   1.00
H2       0.94477    0.77732    1.16694   1.00
H2       0.97027    0.73189    1.15849   1.00
C5       0.91073    0.72555    1.17851   1.00
C5       1.08224    0.73895    1.03936   1.00
C5       0.91850    0.63930    0.95681   1.00
H2       1.07912    0.75912    1.01413   1.00
H2       1.09926    0.71288    1.02984   1.00
H2       0.90256    0.66700    0.96305   1.00
H2       0.91739    0.62105    0.98386   1.00
H2       0.88114    0.55970    0.94371   1.00
H2       1.13129    0.80753    1.03765   1.00
H2       1.15912    0.76237    1.03799   1.00
C2       0.99977    0.85395    1.00267   1.00
C3       1.02489    0.83403    0.97680   1.00
O2       1.05579    0.85326    0.95959   1.00
C3       0.97383    0.83174    1.02588   1.00
H1       0.95353    0.84615    1.04523   1.00
C3a      1.02430    0.79287    0.97544   1.00
H1       1.04525    0.77798    0.95713   1.00
C3b      0.97418    0.79078    1.02536   1.00
C4       0.99959    0.77100    1.00008   1.00
O3       1.04551    0.72833    1.05463   1.00
C5       1.04669    0.86280    0.92059   1.00
H2       1.04014    0.83609    0.90310   1.00
C5       1.08231    0.88326    0.90352   1.00
H2       1.02103    0.88274    0.91916   1.00
H2       1.10419    0.86068    0.89530   1.00
H2       1.09571    0.90093    0.92729   1.00
C5       1.07238    0.90918    0.86820   1.00
H2       1.05629    0.89176    0.84609   1.00
C5       1.10977    0.92547    0.84937   1.00
H2       1.05438    0.93493    0.87702   1.00
C5       1.10463    0.75983    1.07164   1.00
H2       1.11359    0.73785    1.09385   1.00
H2       1.08432    0.78048    1.08641   1.00
C5       1.14033    0.78200    1.05576   1.00
C5       1.16499    0.79775    1.08984   1.00
H2       0.85609    0.55714    0.87955   1.00
H2       0.81258    0.56553    0.91094   1.00
H2       0.83433    0.60677    0.88311   1.00
H2       0.92253    0.71895    1.20890   1.00
H2       0.88351    0.74449    1.18107   1.00
H2       0.90302    0.69707    1.16318   1.00
H2       1.10395    0.95613    0.83788   1.00
H2       1.13405    0.92656    0.87207   1.00
H2       1.11900    0.90577    0.82421   1.00
H2       1.14837    0.79366    1.11836   1.00
H2       1.19377    0.78116    1.09130   1.00
H2       1.17107    0.83010    1.08510   1.00
C5       0.92285    0.89939    0.61782   1.00
H2       0.90760    0.92355    0.60255   1.00
H2       0.90150    0.88748    0.63910   1.00
C5       0.93456    0.86784    0.58806   1.00
C5       0.89978    0.84097    0.57877   1.00
H2       0.95895    0.84992    0.59985   1.00
O3       1.04801    0.94794    0.77000   1.00
C4       0.99992    1.00041    0.72900   1.00
C3c      0.97379    0.97724    0.70757   1.00
H1       0.95303    0.95898    0.72275   1.00
C3d      1.02636    1.02442    0.70865   1.00
C3       0.97433    0.97677    0.66646   1.00
O2       0.94487    0.95713    0.64752   1.00
C3       1.02748    1.02346    0.66773   1.00
H1       1.04919    1.04133    0.65343   1.00
C2       1.00155    0.99988    0.64561   1.00
C5       1.08736    0.96009    0.77121   1.00
H2       1.09879    0.96176    0.80162   1.00
H2       1.09104    0.98932    0.75734   1.00
C5       1.11140    0.93018    0.74871   1.00
H2       1.09929    0.92770    0.71863   1.00
H2       1.10781    0.90119    0.76302   1.00
C5       1.15473    0.94198    0.74738   1.00
H2       1.16694    0.94477    0.77732   1.00
H2       1.15849    0.97027    0.73189   1.00
C5       1.17851    0.91073    0.72555   1.00
C5       1.03936    1.08224    0.73895   1.00
C5       0.95681    0.91850    0.63930   1.00
H2       1.01413    1.07912    0.75912   1.00
H2       1.02984    1.09926    0.71288   1.00
H2       0.96305    0.90256    0.66700   1.00
H2       0.98386    0.91739    0.62105   1.00
H2       0.94371    0.88114    0.55970   1.00
H2       1.03765    1.13129    0.80753   1.00
H2       1.03799    1.15912    0.76237   1.00
C2       1.00267    0.99977    0.85395   1.00
C3       0.97680    1.02489    0.83403   1.00
O2       0.95959    1.05579    0.85326   1.00
C3       1.02588    0.97383    0.83174   1.00
H1       1.04523    0.95353    0.84615   1.00
C3a      0.97544    1.02430    0.79287   1.00
H1       0.95713    1.04525    0.77798   1.00
C3b      1.02536    0.97418    0.79078   1.00
C4       1.00008    0.99959    0.77100   1.00
O3       1.05463    1.04551    0.72833   1.00
C5       0.92059    1.04669    0.86280   1.00
H2       0.90310    1.04014    0.83609   1.00
C5       0.90352    1.08231    0.88326   1.00
H2       0.91916    1.02103    0.88274   1.00
H2       0.89530    1.10419    0.86068   1.00
H2       0.92729    1.09571    0.90093   1.00
C5       0.86820    1.07238    0.90918   1.00
H2       0.84609    1.05629    0.89176   1.00
C5       0.84937    1.10977    0.92547   1.00
H2       0.87702    1.05438    0.93493   1.00
C5       1.07164    1.10463    0.75983   1.00
H2       1.09385    1.11359    0.73785   1.00
H2       1.08641    1.08432    0.78048   1.00
C5       1.05576    1.14033    0.78200   1.00
C5       1.08984    1.16499    0.79775   1.00
H2       0.87955    0.85609    0.55714   1.00
H2       0.91094    0.81258    0.56553   1.00
H2       0.88311    0.83433    0.60677   1.00
H2       1.20890    0.92253    0.71895   1.00
H2       1.18107    0.88351    0.74449   1.00
H2       1.16318    0.90302    0.69707   1.00
H2       0.83788    1.10395    0.95613   1.00
H2       0.87207    1.13405    0.92656   1.00
H2       0.82421    1.11900    0.90577   1.00
H2       1.11836    1.14837    0.79366   1.00
H2       1.09130    1.19377    0.78116   1.00
H2       1.08510    1.17107    0.83010   1.00
C5       0.42285    0.60061    1.38218   1.00
H2       0.40760    0.57645    1.39745   1.00
H2       0.40150    0.61252    1.36090   1.00
C5       0.43456    0.63216    1.41194   1.00
C5       0.39978    0.65903    1.42123   1.00
H2       0.45895    0.65008    1.40015   1.00
O3       0.54801    0.55206    1.23000   1.00
C4       0.49992    0.49959    1.27100   1.00
C3c      0.47379    0.52276    1.29243   1.00
H1       0.45303    0.54102    1.27725   1.00
C3d      0.52636    0.47558    1.29135   1.00
C3       0.47433    0.52323    1.33354   1.00
O2       0.44487    0.54287    1.35248   1.00
C3       0.52748    0.47654    1.33227   1.00
H1       0.54919    0.45867    1.34657   1.00
C2       0.50155    0.50012    1.35439   1.00
C5       0.58736    0.53991    1.22879   1.00
H2       0.59879    0.53824    1.19838   1.00
H2       0.59104    0.51068    1.24266   1.00
C5       0.61140    0.56982    1.25129   1.00
H2       0.59929    0.57230    1.28137   1.00
H2       0.60781    0.59881    1.23698   1.00
C5       0.65473    0.55802    1.25262   1.00
H2       0.66694    0.55523    1.22268   1.00
H2       0.65849    0.52973    1.26811   1.00
C5       0.67851    0.58927    1.27445   1.00
C5       0.53936    0.41776    1.26105   1.00
C5       0.45681    0.58150    1.36070   1.00
H2       0.51413    0.42088    1.24088   1.00
H2       0.52984    0.40074    1.28712   1.00
H2       0.46305    0.59744    1.33300   1.00
H2       0.48386    0.58261    1.37895   1.00
H2       0.44371    0.61886    1.44030   1.00
H2       0.53765    0.36871    1.19247   1.00
H2       0.53799    0.34088    1.23763   1.00
C2       0.50267    0.50023    1.14605   1.00
C3       0.47680    0.47511    1.16597   1.00
O2       0.45959    0.44421    1.14674   1.00
C3       0.52588    0.52617    1.16826   1.00
H1       0.54523    0.54647    1.15385   1.00
C3a      0.47544    0.47570    1.20713   1.00
H1       0.45713    0.45475    1.22202   1.00
C3b      0.52536    0.52582    1.20922   1.00
C4       0.50008    0.50041    1.22900   1.00
O3       0.55463    0.45449    1.27167   1.00
C5       0.42059    0.45331    1.13720   1.00
H2       0.40310    0.45986    1.16391   1.00
C5       0.40352    0.41769    1.11674   1.00
H2       0.41916    0.47897    1.11726   1.00
H2       0.39530    0.39581    1.13932   1.00
H2       0.42729    0.40429    1.09907   1.00
C5       0.36820    0.42762    1.09082   1.00
H2       0.34609    0.44371    1.10824   1.00
C5       0.34937    0.39023    1.07453   1.00
H2       0.37702    0.44562    1.06507   1.00
C5       0.57164    0.39537    1.24017   1.00
H2       0.59385    0.38641    1.26215   1.00
H2       0.58641    0.41568    1.21952   1.00
C5       0.55576    0.35967    1.21800   1.00
C5       0.58984    0.33501    1.20225   1.00
H2       0.37955    0.64391    1.44286   1.00
H2       0.41094    0.68742    1.43447   1.00
H2       0.38311    0.66567    1.39323   1.00
H2       0.70890    0.57747    1.28105   1.00
H2       0.68107    0.61649    1.25551   1.00
H2       0.66318    0.59698    1.30293   1.00
H2       0.33788    0.39605    1.04387   1.00
H2       0.37207    0.36595    1.07344   1.00
H2       0.32421    0.38100    1.09423   1.00
H2       0.61836    0.35163    1.20634   1.00
H2       0.59130    0.30623    1.21884   1.00
H2       0.58510    0.32893    1.16990   1.00
C5       0.60061    0.88218    0.92285   1.00
H2       0.57645    0.89745    0.90760   1.00
H2       0.61252    0.86090    0.90150   1.00
C5       0.63216    0.91194    0.93456   1.00
C5       0.65903    0.92123    0.89978   1.00
H2       0.65008    0.90015    0.95895   1.00
O3       0.55206    0.73000    1.04801   1.00
C4       0.49959    0.77100    0.99992   1.00
C3c      0.52276    0.79243    0.97379   1.00
H1       0.54102    0.77725    0.95303   1.00
C3d      0.47558    0.79135    1.02636   1.00
C3       0.52323    0.83354    0.97433   1.00
O2       0.54287    0.85248    0.94487   1.00
C3       0.47654    0.83227    1.02748   1.00
H1       0.45867    0.84657    1.04919   1.00
C2       0.50012    0.85439    1.00155   1.00
C5       0.53991    0.72879    1.08736   1.00
H2       0.53824    0.69838    1.09879   1.00
H2       0.51068    0.74266    1.09104   1.00
C5       0.56982    0.75129    1.11140   1.00
H2       0.57230    0.78137    1.09929   1.00
H2       0.59881    0.73698    1.10781   1.00
C5       0.55802    0.75262    1.15473   1.00
H2       0.55523    0.72268    1.16694   1.00
H2       0.52973    0.76811    1.15849   1.00
C5       0.58927    0.77445    1.17851   1.00
C5       0.41776    0.76105    1.03936   1.00
C5       0.58150    0.86070    0.95681   1.00
H2       0.42088    0.74088    1.01413   1.00
H2       0.40074    0.78712    1.02984   1.00
H2       0.59744    0.83300    0.96305   1.00
H2       0.58261    0.87895    0.98386   1.00
H2       0.61886    0.94030    0.94371   1.00
H2       0.36871    0.69247    1.03765   1.00
H2       0.34088    0.73763    1.03799   1.00
C2       0.50023    0.64605    1.00267   1.00
C3       0.47511    0.66597    0.97680   1.00
O2       0.44421    0.64674    0.95959   1.00
C3       0.52617    0.66826    1.02588   1.00
H1       0.54647    0.65385    1.04523   1.00
C3a      0.47570    0.70713    0.97544   1.00
H1       0.45475    0.72202    0.95713   1.00
C3b      0.52582    0.70922    1.02536   1.00
C4       0.50041    0.72900    1.00008   1.00
O3       0.45449    0.77167    1.05463   1.00
C5       0.45331    0.63720    0.92059   1.00
H2       0.45986    0.66391    0.90310   1.00
C5       0.41769    0.61674    0.90352   1.00
H2       0.47897    0.61726    0.91916   1.00
H2       0.39581    0.63932    0.89530   1.00
H2       0.40429    0.59907    0.92729   1.00
C5       0.42762    0.59082    0.86820   1.00
H2       0.44371    0.60824    0.84609   1.00
C5       0.39023    0.57453    0.84937   1.00
H2       0.44562    0.56507    0.87702   1.00
C5       0.39537    0.74017    1.07164   1.00
H2       0.38641    0.76215    1.09385   1.00
H2       0.41568    0.71952    1.08641   1.00
C5       0.35967    0.71800    1.05576   1.00
C5       0.33501    0.70225    1.08984   1.00
H2       0.64391    0.94286    0.87955   1.00
H2       0.68742    0.93447    0.91094   1.00
H2       0.66567    0.89323    0.88311   1.00
H2       0.57747    0.78105    1.20890   1.00
H2       0.61649    0.75551    1.18107   1.00
H2       0.59698    0.80293    1.16318   1.00
H2       0.39605    0.54387    0.83788   1.00
H2       0.36595    0.57344    0.87207   1.00
H2       0.38100    0.59423    0.82421   1.00
H2       0.35163    0.70634    1.11836   1.00
H2       0.30623    0.71884    1.09130   1.00
H2       0.32893    0.66990    1.08510   1.00
C5       0.11782    0.42285    0.89939   1.00
H2       0.10255    0.40760    0.92355   1.00
H2       0.13910    0.40150    0.88748   1.00
C5       0.08806    0.43456    0.86784   1.00
C5       0.07877    0.39978    0.84097   1.00
H2       0.09985    0.45895    0.84992   1.00
O3       0.27000    0.54801    0.94794   1.00
C4       0.22900    0.49992    1.00041   1.00
C3c      0.20757    0.47379    0.97724   1.00
H1       0.22275    0.45303    0.95898   1.00
C3d      0.20865    0.52636    1.02442   1.00
C3       0.16646    0.47433    0.97677   1.00
O2       0.14752    0.44487    0.95713   1.00
C3       0.16773    0.52748    1.02346   1.00
H1       0.15343    0.54919    1.04133   1.00
C2       0.14561    0.50155    0.99988   1.00
C5       0.27121    0.58736    0.96009   1.00
H2       0.30162    0.59879    0.96176   1.00
H2       0.25734    0.59104    0.98932   1.00
C5       0.24871    0.61140    0.93018   1.00
H2       0.21863    0.59929    0.92770   1.00
H2       0.26302    0.60781    0.90119   1.00
C5       0.24738    0.65473    0.94198   1.00
H2       0.27732    0.66694    0.94477   1.00
H2       0.23189    0.65849    0.97027   1.00
C5       0.22555    0.67851    0.91073   1.00
C5       0.23895    0.53936    1.08224   1.00
C5       0.13930    0.45681    0.91850   1.00
H2       0.25912    0.51413    1.07912   1.00
H2       0.21288    0.52984    1.09926   1.00
H2       0.16700    0.46305    0.90256   1.00
H2       0.12105    0.48386    0.91739   1.00
H2       0.05970    0.44371    0.88114   1.00
H2       0.30753    0.53765    1.13129   1.00
H2       0.26237    0.53799    1.15912   1.00
C2       0.35395    0.50267    0.99977   1.00
C3       0.33403    0.47680    1.02489   1.00
O2       0.35326    0.45959    1.05579   1.00
C3       0.33174    0.52588    0.97383   1.00
H1       0.34615    0.54523    0.95353   1.00
C3a      0.29287    0.47544    1.02430   1.00
H1       0.27798    0.45713    1.04525   1.00
C3b      0.29078    0.52536    0.97418   1.00
C4       0.27100    0.50008    0.99959   1.00
O3       0.22833    0.55463    1.04551   1.00
C5       0.36280    0.42059    1.04669   1.00
H2       0.33609    0.40310    1.04014   1.00
C5       0.38326    0.40352    1.08231   1.00
H2       0.38274    0.41916    1.02103   1.00
H2       0.36068    0.39530    1.10419   1.00
H2       0.40093    0.42729    1.09571   1.00
C5       0.40918    0.36820    1.07238   1.00
H2       0.39176    0.34609    1.05629   1.00
C5       0.42547    0.34937    1.10977   1.00
H2       0.43493    0.37702    1.05438   1.00
C5       0.25983    0.57164    1.10463   1.00
H2       0.23785    0.59385    1.11359   1.00
H2       0.28048    0.58641    1.08432   1.00
C5       0.28200    0.55576    1.14033   1.00
C5       0.29775    0.58984    1.16499   1.00
H2       0.05714    0.37955    0.85609   1.00
H2       0.06553    0.41094    0.81258   1.00
H2       0.10677    0.38311    0.83433   1.00
H2       0.21895    0.70890    0.92253   1.00
H2       0.24449    0.68107    0.88351   1.00
H2       0.19707    0.66318    0.90302   1.00
H2       0.45613    0.33788    1.10395   1.00
H2       0.42656    0.37207    1.13405   1.00
H2       0.40577    0.32421    1.11900   1.00
H2       0.29366    0.61836    1.14837   1.00
H2       0.28116    0.59130    1.19377   1.00
H2       0.33010    0.58510    1.17107   1.00
C5       0.88218    0.42285    1.10061   1.00
H2       0.89745    0.40760    1.07645   1.00
H2       0.86090    0.40150    1.11252   1.00
C5       0.91194    0.43456    1.13216   1.00
C5       0.92123    0.39978    1.15903   1.00
H2       0.90015    0.45895    1.15008   1.00
O3       0.73000    0.54801    1.05206   1.00
C4       0.77100    0.49992    0.99959   1.00
C3c      0.79243    0.47379    1.02276   1.00
H1       0.77725    0.45303    1.04102   1.00
C3d      0.79135    0.52636    0.97558   1.00
C3       0.83354    0.47433    1.02323   1.00
O2       0.85248    0.44487    1.04287   1.00
C3       0.83227    0.52748    0.97654   1.00
H1       0.84657    0.54919    0.95867   1.00
C2       0.85439    0.50155    1.00012   1.00
C5       0.72879    0.58736    1.03991   1.00
H2       0.69838    0.59879    1.03824   1.00
H2       0.74266    0.59104    1.01068   1.00
C5       0.75129    0.61140    1.06982   1.00
H2       0.78137    0.59929    1.07230   1.00
H2       0.73698    0.60781    1.09881   1.00
C5       0.75262    0.65473    1.05802   1.00
H2       0.72268    0.66694    1.05523   1.00
H2       0.76811    0.65849    1.02973   1.00
C5       0.77445    0.67851    1.08927   1.00
C5       0.76105    0.53936    0.91776   1.00
C5       0.86070    0.45681    1.08150   1.00
H2       0.74088    0.51413    0.92088   1.00
H2       0.78712    0.52984    0.90074   1.00
H2       0.83300    0.46305    1.09744   1.00
H2       0.87895    0.48386    1.08261   1.00
H2       0.94030    0.44371    1.11886   1.00
H2       0.69247    0.53765    0.86871   1.00
H2       0.73763    0.53799    0.84088   1.00
C2       0.64605    0.50267    1.00023   1.00
C3       0.66597    0.47680    0.97511   1.00
O2       0.64674    0.45959    0.94421   1.00
C3       0.66826    0.52588    1.02617   1.00
H1       0.65385    0.54523    1.04647   1.00
C3a      0.70713    0.47544    0.97570   1.00
H1       0.72202    0.45713    0.95475   1.00
C3b      0.70922    0.52536    1.02582   1.00
C4       0.72900    0.50008    1.00041   1.00
O3       0.77167    0.55463    0.95449   1.00
C5       0.63720    0.42059    0.95331   1.00
H2       0.66391    0.40310    0.95986   1.00
C5       0.61674    0.40352    0.91769   1.00
H2       0.61726    0.41916    0.97897   1.00
H2       0.63932    0.39530    0.89581   1.00
H2       0.59907    0.42729    0.90429   1.00
C5       0.59082    0.36820    0.92762   1.00
H2       0.60824    0.34609    0.94371   1.00
C5       0.57453    0.34937    0.89023   1.00
H2       0.56507    0.37702    0.94562   1.00
C5       0.74017    0.57164    0.89537   1.00
H2       0.76215    0.59385    0.88641   1.00
H2       0.71952    0.58641    0.91568   1.00
C5       0.71800    0.55576    0.85967   1.00
C5       0.70225    0.58984    0.83501   1.00
H2       0.94286    0.37955    1.14391   1.00
H2       0.93447    0.41094    1.18742   1.00
H2       0.89323    0.38311    1.16567   1.00
H2       0.78105    0.70890    1.07747   1.00
H2       0.75551    0.68107    1.11649   1.00
H2       0.80293    0.66318    1.09698   1.00
H2       0.54387    0.33788    0.89605   1.00
H2       0.57344    0.37207    0.86595   1.00
H2       0.59423    0.32421    0.88100   1.00
H2       0.70634    0.61836    0.85163   1.00
H2       0.71884    0.59130    0.80623   1.00
H2       0.66990    0.58510    0.82893   1.00
C5       0.39939    0.11782    0.92285   1.00
H2       0.42355    0.10255    0.90760   1.00
H2       0.38748    0.13910    0.90150   1.00
C5       0.36784    0.08806    0.93456   1.00
C5       0.34097    0.07877    0.89978   1.00
H2       0.34992    0.09985    0.95895   1.00
O3       0.44794    0.27000    1.04801   1.00
C4       0.50041    0.22900    0.99992   1.00
C3c      0.47724    0.20757    0.97379   1.00
H1       0.45898    0.22275    0.95303   1.00
C3d      0.52442    0.20865    1.02636   1.00
C3       0.47677    0.16646    0.97433   1.00
O2       0.45713    0.14752    0.94487   1.00
C3       0.52346    0.16773    1.02748   1.00
H1       0.54133    0.15343    1.04919   1.00
C2       0.49988    0.14561    1.00155   1.00
C5       0.46009    0.27121    1.08736   1.00
H2       0.46176    0.30162    1.09879   1.00
H2       0.48932    0.25734    1.09104   1.00
C5       0.43018    0.24871    1.11140   1.00
H2       0.42770    0.21863    1.09929   1.00
H2       0.40119    0.26302    1.10781   1.00
C5       0.44198    0.24738    1.15473   1.00
H2       0.44477    0.27732    1.16694   1.00
H2       0.47027    0.23189    1.15849   1.00
C5       0.41073    0.22555    1.17851   1.00
C5       0.58224    0.23895    1.03936   1.00
C5       0.41850    0.13930    0.95681   1.00
H2       0.57912    0.25912    1.01413   1.00
H2       0.59926    0.21288    1.02984   1.00
H2       0.40256    0.16700    0.96305   1.00
H2       0.41739    0.12105    0.98386   1.00
H2       0.38114    0.05970    0.94371   1.00
H2       0.63129    0.30753    1.03765   1.00
H2       0.65912    0.26237    1.03799   1.00
C2       0.49977    0.35395    1.00267   1.00
C3       0.52489    0.33403    0.97680   1.00
O2       0.55579    0.35326    0.95959   1.00
C3       0.47383    0.33174    1.02588   1.00
H1       0.45353    0.34615    1.04523   1.00
C3a      0.52430    0.29287    0.97544   1.00
H1       0.54525    0.27798    0.95713   1.00
C3b      0.47418    0.29078    1.02536   1.00
C4       0.49959    0.27100    1.00008   1.00
O3       0.54551    0.22833    1.05463   1.00
C5       0.54669    0.36280    0.92059   1.00
H2       0.54014    0.33609    0.90310   1.00
C5       0.58231    0.38326    0.90352   1.00
H2       0.52103    0.38274    0.91916   1.00
H2       0.60419    0.36068    0.89530   1.00
H2       0.59571    0.40093    0.92729   1.00
C5       0.57238    0.40918    0.86820   1.00
H2       0.55629    0.39176    0.84609   1.00
C5       0.60977    0.42547    0.84937   1.00
H2       0.55438    0.43493    0.87702   1.00
C5       0.60463    0.25983    1.07164   1.00
H2       0.61359    0.23785    1.09385   1.00
H2       0.58432    0.28048    1.08641   1.00
C5       0.64033    0.28200    1.05576   1.00
C5       0.66499    0.29775    1.08984   1.00
H2       0.35609    0.05714    0.87955   1.00
H2       0.31258    0.06553    0.91094   1.00
H2       0.33433    0.10677    0.88311   1.00
H2       0.42253    0.21895    1.20890   1.00
H2       0.38351    0.24449    1.18107   1.00
H2       0.40302    0.19707    1.16318   1.00
H2       0.60395    0.45613    0.83788   1.00
H2       0.63405    0.42656    0.87207   1.00
H2       0.61900    0.40577    0.82421   1.00
H2       0.64837    0.29366    1.11836   1.00
H2       0.69377    0.28116    1.09130   1.00
H2       0.67107    0.33010    1.08510   1.00
C5       0.42285    0.39939    0.61782   1.00
H2       0.40760    0.42355    0.60255   1.00
H2       0.40150    0.38748    0.63910   1.00
C5       0.43456    0.36784    0.58806   1.00
C5       0.39978    0.34097    0.57877   1.00
H2       0.45895    0.34992    0.59985   1.00
O3       0.54801    0.44794    0.77000   1.00
C4       0.49992    0.50041    0.72900   1.00
C3c      0.47379    0.47724    0.70757   1.00
H1       0.45303    0.45898    0.72275   1.00
C3d      0.52636    0.52442    0.70865   1.00
C3       0.47433    0.47677    0.66646   1.00
O2       0.44487    0.45713    0.64752   1.00
C3       0.52748    0.52346    0.66773   1.00
H1       0.54919    0.54133    0.65343   1.00
C2       0.50155    0.49988    0.64561   1.00
C5       0.58736    0.46009    0.77121   1.00
H2       0.59879    0.46176    0.80162   1.00
H2       0.59104    0.48932    0.75734   1.00
C5       0.61140    0.43018    0.74871   1.00
H2       0.59929    0.42770    0.71863   1.00
H2       0.60781    0.40119    0.76302   1.00
C5       0.65473    0.44198    0.74738   1.00
H2       0.66694    0.44477    0.77732   1.00
H2       0.65849    0.47027    0.73189   1.00
C5       0.67851    0.41073    0.72555   1.00
C5       0.53936    0.58224    0.73895   1.00
C5       0.45681    0.41850    0.63930   1.00
H2       0.51413    0.57912    0.75912   1.00
H2       0.52984    0.59926    0.71288   1.00
H2       0.46305    0.40256    0.66700   1.00
H2       0.48386    0.41739    0.62105   1.00
H2       0.44371    0.38114    0.55970   1.00
H2       0.53765    0.63129    0.80753   1.00
H2       0.53799    0.65912    0.76237   1.00
C2       0.50267    0.49977    0.85395   1.00
C3       0.47680    0.52489    0.83403   1.00
O2       0.45959    0.55579    0.85326   1.00
C3       0.52588    0.47383    0.83174   1.00
H1       0.54523    0.45353    0.84615   1.00
C3a      0.47544    0.52430    0.79287   1.00
H1       0.45713    0.54525    0.77798   1.00
C3b      0.52536    0.47418    0.79078   1.00
C4       0.50008    0.49959    0.77100   1.00
O3       0.55463    0.54551    0.72833   1.00
C5       0.42059    0.54669    0.86280   1.00
H2       0.40310    0.54014    0.83609   1.00
C5       0.40352    0.58231    0.88326   1.00
H2       0.41916    0.52103    0.88274   1.00
H2       0.39530    0.60419    0.86068   1.00
H2       0.42729    0.59571    0.90093   1.00
C5       0.36820    0.57238    0.90918   1.00
H2       0.34609    0.55629    0.89176   1.00
C5       0.34937    0.60977    0.92547   1.00
H2       0.37702    0.55438    0.93493   1.00
C5       0.57164    0.60463    0.75983   1.00
H2       0.59385    0.61359    0.73785   1.00
H2       0.58641    0.58432    0.78048   1.00
C5       0.55576    0.64033    0.78200   1.00
C5       0.58984    0.66499    0.79775   1.00
H2       0.37955    0.35609    0.55714   1.00
H2       0.41094    0.31258    0.56553   1.00
H2       0.38311    0.33433    0.60677   1.00
H2       0.70890    0.42253    0.71895   1.00
H2       0.68107    0.38351    0.74449   1.00
H2       0.66318    0.40302    0.69707   1.00
H2       0.33788    0.60395    0.95613   1.00
H2       0.37207    0.63405    0.92656   1.00
H2       0.32421    0.61900    0.90577   1.00
H2       0.61836    0.64837    0.79366   1.00
H2       0.59130    0.69377    0.78116   1.00
H2       0.58510    0.67107    0.83010   1.00
C5       0.42285    1.10061    0.88218   1.00
H2       0.40760    1.07645    0.89745   1.00
H2       0.40150    1.11252    0.86090   1.00
C5       0.43456    1.13216    0.91194   1.00
C5       0.39978    1.15903    0.92123   1.00
H2       0.45895    1.15008    0.90015   1.00
O3       0.54801    1.05206    0.73000   1.00
C4       0.49992    0.99959    0.77100   1.00
C3c      0.47379    1.02276    0.79243   1.00
H1       0.45303    1.04102    0.77725   1.00
C3d      0.52636    0.97558    0.79135   1.00
C3       0.47433    1.02323    0.83354   1.00
O2       0.44487    1.04287    0.85248   1.00
C3       0.52748    0.97654    0.83227   1.00
H1       0.54919    0.95867    0.84657   1.00
C2       0.50155    1.00012    0.85439   1.00
C5       0.58736    1.03991    0.72879   1.00
H2       0.59879    1.03824    0.69838   1.00
H2       0.59104    1.01068    0.74266   1.00
C5       0.61140    1.06982    0.75129   1.00
H2       0.59929    1.07230    0.78137   1.00
H2       0.60781    1.09881    0.73698   1.00
C5       0.65473    1.05802    0.75262   1.00
H2       0.66694    1.05523    0.72268   1.00
H2       0.65849    1.02973    0.76811   1.00
C5       0.67851    1.08927    0.77445   1.00
C5       0.53936    0.91776    0.76105   1.00
C5       0.45681    1.08150    0.86070   1.00
H2       0.51413    0.92088    0.74088   1.00
H2       0.52984    0.90074    0.78712   1.00
H2       0.46305    1.09744    0.83300   1.00
H2       0.48386    1.08261    0.87895   1.00
H2       0.44371    1.11886    0.94030   1.00
H2       0.53765    0.86871    0.69247   1.00
H2       0.53799    0.84088    0.73763   1.00
C2       0.50267    1.00023    0.64605   1.00
C3       0.47680    0.97511    0.66597   1.00
O2       0.45959    0.94421    0.64674   1.00
C3       0.52588    1.02617    0.66826   1.00
H1       0.54523    1.04647    0.65385   1.00
C3a      0.47544    0.97570    0.70713   1.00
H1       0.45713    0.95475    0.72202   1.00
C3b      0.52536    1.02582    0.70922   1.00
C4       0.50008    1.00041    0.72900   1.00
O3       0.55463    0.95449    0.77167   1.00
C5       0.42059    0.95331    0.63720   1.00
H2       0.40310    0.95986    0.66391   1.00
C5       0.40352    0.91769    0.61674   1.00
H2       0.41916    0.97897    0.61726   1.00
H2       0.39530    0.89581    0.63932   1.00
H2       0.42729    0.90429    0.59907   1.00
C5       0.36820    0.92762    0.59082   1.00
H2       0.34609    0.94371    0.60824   1.00
C5       0.34937    0.89023    0.57453   1.00
H2       0.37702    0.94562    0.56507   1.00
C5       0.57164    0.89537    0.74017   1.00
H2       0.59385    0.88641    0.76215   1.00
H2       0.58641    0.91568    0.71952   1.00
C5       0.55576    0.85967    0.71800   1.00
C5       0.58984    0.83501    0.70225   1.00
H2       0.37955    1.14391    0.94286   1.00
H2       0.41094    1.18742    0.93447   1.00
H2       0.38311    1.16567    0.89323   1.00
H2       0.70890    1.07747    0.78105   1.00
H2       0.68107    1.11649    0.75551   1.00
H2       0.66318    1.09698    0.80293   1.00
H2       0.33788    0.89605    0.54387   1.00
H2       0.37207    0.86595    0.57344   1.00
H2       0.32421    0.88100    0.59423   1.00
H2       0.61836    0.85163    0.70634   1.00
H2       0.59130    0.80623    0.71884   1.00
H2       0.58510    0.82893    0.66990   1.00
C5       0.60061    1.38218    0.42285   1.00
H2       0.57645    1.39745    0.40760   1.00
H2       0.61252    1.36090    0.40150   1.00
C5       0.63216    1.41194    0.43456   1.00
C5       0.65903    1.42123    0.39978   1.00
H2       0.65008    1.40015    0.45895   1.00
O3       0.55206    1.23000    0.54801   1.00
C4       0.49959    1.27100    0.49992   1.00
C3c      0.52276    1.29243    0.47379   1.00
H1       0.54102    1.27725    0.45303   1.00
C3d      0.47558    1.29135    0.52636   1.00
C3       0.52323    1.33354    0.47433   1.00
O2       0.54287    1.35248    0.44487   1.00
C3       0.47654    1.33227    0.52748   1.00
H1       0.45867    1.34657    0.54919   1.00
C2       0.50012    1.35439    0.50155   1.00
C5       0.53991    1.22879    0.58736   1.00
H2       0.53824    1.19838    0.59879   1.00
H2       0.51068    1.24266    0.59104   1.00
C5       0.56982    1.25129    0.61140   1.00
H2       0.57230    1.28137    0.59929   1.00
H2       0.59881    1.23698    0.60781   1.00
C5       0.55802    1.25262    0.65473   1.00
H2       0.55523    1.22268    0.66694   1.00
H2       0.52973    1.26811    0.65849   1.00
C5       0.58927    1.27445    0.67851   1.00
C5       0.41776    1.26105    0.53936   1.00
C5       0.58150    1.36070    0.45681   1.00
H2       0.42088    1.24088    0.51413   1.00
H2       0.40074    1.28712    0.52984   1.00
H2       0.59744    1.33300    0.46305   1.00
H2       0.58261    1.37895    0.48386   1.00
H2       0.61886    1.44030    0.44371   1.00
H2       0.36871    1.19247    0.53765   1.00
H2       0.34088    1.23763    0.53799   1.00
C2       0.50023    1.14605    0.50267   1.00
C3       0.47511    1.16597    0.47680   1.00
O2       0.44421    1.14674    0.45959   1.00
C3       0.52617    1.16826    0.52588   1.00
H1       0.54647    1.15385    0.54523   1.00
C3a      0.47570    1.20713    0.47544   1.00
H1       0.45475    1.22202    0.45713   1.00
C3b      0.52582    1.20922    0.52536   1.00
C4       0.50041    1.22900    0.50008   1.00
O3       0.45449    1.27167    0.55463   1.00
C5       0.45331    1.13720    0.42059   1.00
H2       0.45986    1.16391    0.40310   1.00
C5       0.41769    1.11674    0.40352   1.00
H2       0.47897    1.11726    0.41916   1.00
H2       0.39581    1.13932    0.39530   1.00
H2       0.40429    1.09907    0.42729   1.00
C5       0.42762    1.09082    0.36820   1.00
H2       0.44371    1.10824    0.34609   1.00
C5       0.39023    1.07453    0.34937   1.00
H2       0.44562    1.06507    0.37702   1.00
C5       0.39537    1.24017    0.57164   1.00
H2       0.38641    1.26215    0.59385   1.00
H2       0.41568    1.21952    0.58641   1.00
C5       0.35967    1.21800    0.55576   1.00
C5       0.33501    1.20225    0.58984   1.00
H2       0.64391    1.44286    0.37955   1.00
H2       0.68742    1.43447    0.41094   1.00
H2       0.66567    1.39323    0.38311   1.00
H2       0.57747    1.28105    0.70890   1.00
H2       0.61649    1.25551    0.68107   1.00
H2       0.59698    1.30293    0.66318   1.00
H2       0.39605    1.04387    0.33788   1.00
H2       0.36595    1.07344    0.37207   1.00
H2       0.38100    1.09423    0.32421   1.00
H2       0.35163    1.20634    0.61836   1.00
H2       0.30623    1.21884    0.59130   1.00
H2       0.32893    1.16990    0.58510   1.00
C5       0.11782    0.92285    0.39939   1.00
H2       0.10255    0.90760    0.42355   1.00
H2       0.13910    0.90150    0.38748   1.00
C5       0.08806    0.93456    0.36784   1.00
C5       0.07877    0.89978    0.34097   1.00
H2       0.09985    0.95895    0.34992   1.00
O3       0.27000    1.04801    0.44794   1.00
C4       0.22900    0.99992    0.50041   1.00
C3c      0.20757    0.97379    0.47724   1.00
H1       0.22275    0.95303    0.45898   1.00
C3d      0.20865    1.02636    0.52442   1.00
C3       0.16646    0.97433    0.47677   1.00
O2       0.14752    0.94487    0.45713   1.00
C3       0.16773    1.02748    0.52346   1.00
H1       0.15343    1.04919    0.54133   1.00
C2       0.14561    1.00155    0.49988   1.00
C5       0.27121    1.08736    0.46009   1.00
H2       0.30162    1.09879    0.46176   1.00
H2       0.25734    1.09104    0.48932   1.00
C5       0.24871    1.11140    0.43018   1.00
H2       0.21863    1.09929    0.42770   1.00
H2       0.26302    1.10781    0.40119   1.00
C5       0.24738    1.15473    0.44198   1.00
H2       0.27732    1.16694    0.44477   1.00
H2       0.23189    1.15849    0.47027   1.00
C5       0.22555    1.17851    0.41073   1.00
C5       0.23895    1.03936    0.58224   1.00
C5       0.13930    0.95681    0.41850   1.00
H2       0.25912    1.01413    0.57912   1.00
H2       0.21288    1.02984    0.59926   1.00
H2       0.16700    0.96305    0.40256   1.00
H2       0.12105    0.98386    0.41739   1.00
H2       0.05970    0.94371    0.38114   1.00
H2       0.30753    1.03765    0.63129   1.00
H2       0.26237    1.03799    0.65912   1.00
C2       0.35395    1.00267    0.49977   1.00
C3       0.33403    0.97680    0.52489   1.00
O2       0.35326    0.95959    0.55579   1.00
C3       0.33174    1.02588    0.47383   1.00
H1       0.34615    1.04523    0.45353   1.00
C3a      0.29287    0.97544    0.52430   1.00
H1       0.27798    0.95713    0.54525   1.00
C3b      0.29078    1.02536    0.47418   1.00
C4       0.27100    1.00008    0.49959   1.00
O3       0.22833    1.05463    0.54551   1.00
C5       0.36280    0.92059    0.54669   1.00
H2       0.33609    0.90310    0.54014   1.00
C5       0.38326    0.90352    0.58231   1.00
H2       0.38274    0.91916    0.52103   1.00
H2       0.36068    0.89530    0.60419   1.00
H2       0.40093    0.92729    0.59571   1.00
C5       0.40918    0.86820    0.57238   1.00
H2       0.39176    0.84609    0.55629   1.00
C5       0.42547    0.84937    0.60977   1.00
H2       0.43493    0.87702    0.55438   1.00
C5       0.25983    1.07164    0.60463   1.00
H2       0.23785    1.09385    0.61359   1.00
H2       0.28048    1.08641    0.58432   1.00
C5       0.28200    1.05576    0.64033   1.00
C5       0.29775    1.08984    0.66499   1.00
H2       0.05714    0.87955    0.35609   1.00
H2       0.06553    0.91094    0.31258   1.00
H2       0.10677    0.88311    0.33433   1.00
H2       0.21895    1.20890    0.42253   1.00
H2       0.24449    1.18107    0.38351   1.00
H2       0.19707    1.16318    0.40302   1.00
H2       0.45613    0.83788    0.60395   1.00
H2       0.42656    0.87207    0.63405   1.00
H2       0.40577    0.82421    0.61900   1.00
H2       0.29366    1.11836    0.64837   1.00
H2       0.28116    1.09130    0.69377   1.00
H2       0.33010    1.08510    0.67107   1.00
C5       0.88218    0.92285    0.60061   1.00
H2       0.89745    0.90760    0.57645   1.00
H2       0.86090    0.90150    0.61252   1.00
C5       0.91194    0.93456    0.63216   1.00
C5       0.92123    0.89978    0.65903   1.00
H2       0.90015    0.95895    0.65008   1.00
O3       0.73000    1.04801    0.55206   1.00
C4       0.77100    0.99992    0.49959   1.00
C3c      0.79243    0.97379    0.52276   1.00
H1       0.77725    0.95303    0.54102   1.00
C3d      0.79135    1.02636    0.47558   1.00
C3       0.83354    0.97433    0.52323   1.00
O2       0.85248    0.94487    0.54287   1.00
C3       0.83227    1.02748    0.47654   1.00
H1       0.84657    1.04919    0.45867   1.00
C2       0.85439    1.00155    0.50012   1.00
C5       0.72879    1.08736    0.53991   1.00
H2       0.69838    1.09879    0.53824   1.00
H2       0.74266    1.09104    0.51068   1.00
C5       0.75129    1.11140    0.56982   1.00
H2       0.78137    1.09929    0.57230   1.00
H2       0.73698    1.10781    0.59881   1.00
C5       0.75262    1.15473    0.55802   1.00
H2       0.72268    1.16694    0.55523   1.00
H2       0.76811    1.15849    0.52973   1.00
C5       0.77445    1.17851    0.58927   1.00
C5       0.76105    1.03936    0.41776   1.00
C5       0.86070    0.95681    0.58150   1.00
H2       0.74088    1.01413    0.42088   1.00
H2       0.78712    1.02984    0.40074   1.00
H2       0.83300    0.96305    0.59744   1.00
H2       0.87895    0.98386    0.58261   1.00
H2       0.94030    0.94371    0.61886   1.00
H2       0.69247    1.03765    0.36871   1.00
H2       0.73763    1.03799    0.34088   1.00
C2       0.64605    1.00267    0.50023   1.00
C3       0.66597    0.97680    0.47511   1.00
O2       0.64674    0.95959    0.44421   1.00
C3       0.66826    1.02588    0.52617   1.00
H1       0.65385    1.04523    0.54647   1.00
C3a      0.70713    0.97544    0.47570   1.00
H1       0.72202    0.95713    0.45475   1.00
C3b      0.70922    1.02536    0.52582   1.00
C4       0.72900    1.00008    0.50041   1.00
O3       0.77167    1.05463    0.45449   1.00
C5       0.63720    0.92059    0.45331   1.00
H2       0.66391    0.90310    0.45986   1.00
C5       0.61674    0.90352    0.41769   1.00
H2       0.61726    0.91916    0.47897   1.00
H2       0.63932    0.89530    0.39581   1.00
H2       0.59907    0.92729    0.40429   1.00
C5       0.59082    0.86820    0.42762   1.00
H2       0.60824    0.84609    0.44371   1.00
C5       0.57453    0.84937    0.39023   1.00
H2       0.56507    0.87702    0.44562   1.00
C5       0.74017    1.07164    0.39537   1.00
H2       0.76215    1.09385    0.38641   1.00
H2       0.71952    1.08641    0.41568   1.00
C5       0.71800    1.05576    0.35967   1.00
C5       0.70225    1.08984    0.33501   1.00
H2       0.94286    0.87955    0.64391   1.00
H2       0.93447    0.91094    0.68742   1.00
H2       0.89323    0.88311    0.66567   1.00
H2       0.78105    1.20890    0.57747   1.00
H2       0.75551    1.18107    0.61649   1.00
H2       0.80293    1.16318    0.59698   1.00
H2       0.54387    0.83788    0.39605   1.00
H2       0.57344    0.87207    0.36595   1.00
H2       0.59423    0.82421    0.38100   1.00
H2       0.70634    1.11836    0.35163   1.00
H2       0.71884    1.09130    0.30623   1.00
H2       0.66990    1.08510    0.32893   1.00
C5       0.39939    0.61782    0.42285   1.00
H2       0.42355    0.60255    0.40760   1.00
H2       0.38748    0.63910    0.40150   1.00
C5       0.36784    0.58806    0.43456   1.00
C5       0.34097    0.57877    0.39978   1.00
H2       0.34992    0.59985    0.45895   1.00
O3       0.44794    0.77000    0.54801   1.00
C4       0.50041    0.72900    0.49992   1.00
C3c      0.47724    0.70757    0.47379   1.00
H1       0.45898    0.72275    0.45303   1.00
C3d      0.52442    0.70865    0.52636   1.00
C3       0.47677    0.66646    0.47433   1.00
O2       0.45713    0.64752    0.44487   1.00
C3       0.52346    0.66773    0.52748   1.00
H1       0.54133    0.65343    0.54919   1.00
C2       0.49988    0.64561    0.50155   1.00
C5       0.46009    0.77121    0.58736   1.00
H2       0.46176    0.80162    0.59879   1.00
H2       0.48932    0.75734    0.59104   1.00
C5       0.43018    0.74871    0.61140   1.00
H2       0.42770    0.71863    0.59929   1.00
H2       0.40119    0.76302    0.60781   1.00
C5       0.44198    0.74738    0.65473   1.00
H2       0.44477    0.77732    0.66694   1.00
H2       0.47027    0.73189    0.65849   1.00
C5       0.41073    0.72555    0.67851   1.00
C5       0.58224    0.73895    0.53936   1.00
C5       0.41850    0.63930    0.45681   1.00
H2       0.57912    0.75912    0.51413   1.00
H2       0.59926    0.71288    0.52984   1.00
H2       0.40256    0.66700    0.46305   1.00
H2       0.41739    0.62105    0.48386   1.00
H2       0.38114    0.55970    0.44371   1.00
H2       0.63129    0.80753    0.53765   1.00
H2       0.65912    0.76237    0.53799   1.00
C2       0.49977    0.85395    0.50267   1.00
C3       0.52489    0.83403    0.47680   1.00
O2       0.55579    0.85326    0.45959   1.00
C3       0.47383    0.83174    0.52588   1.00
H1       0.45353    0.84615    0.54523   1.00
C3a      0.52430    0.79287    0.47544   1.00
H1       0.54525    0.77798    0.45713   1.00
C3b      0.47418    0.79078    0.52536   1.00
C4       0.49959    0.77100    0.50008   1.00
O3       0.54551    0.72833    0.55463   1.00
C5       0.54669    0.86280    0.42059   1.00
H2       0.54014    0.83609    0.40310   1.00
C5       0.58231    0.88326    0.40352   1.00
H2       0.52103    0.88274    0.41916   1.00
H2       0.60419    0.86068    0.39530   1.00
H2       0.59571    0.90093    0.42729   1.00
C5       0.57238    0.90918    0.36820   1.00
H2       0.55629    0.89176    0.34609   1.00
C5       0.60977    0.92547    0.34937   1.00
H2       0.55438    0.93493    0.37702   1.00
C5       0.60463    0.75983    0.57164   1.00
H2       0.61359    0.73785    0.59385   1.00
H2       0.58432    0.78048    0.58641   1.00
C5       0.64033    0.78200    0.55576   1.00
C5       0.66499    0.79775    0.58984   1.00
H2       0.35609    0.55714    0.37955   1.00
H2       0.31258    0.56553    0.41094   1.00
H2       0.33433    0.60677    0.38311   1.00
H2       0.42253    0.71895    0.70890   1.00
H2       0.38351    0.74449    0.68107   1.00
H2       0.40302    0.69707    0.66318   1.00
H2       0.60395    0.95613    0.33788   1.00
H2       0.63405    0.92656    0.37207   1.00
H2       0.61900    0.90577    0.32421   1.00
H2       0.64837    0.79366    0.61836   1.00
H2       0.69377    0.78116    0.59130   1.00
H2       0.67107    0.83010    0.58510   1.00
C5       0.42285    0.89939    0.11782   1.00
H2       0.40760    0.92355    0.10255   1.00
H2       0.40150    0.88748    0.13910   1.00
C5       0.43456    0.86784    0.08806   1.00
C5       0.39978    0.84097    0.07877   1.00
H2       0.45895    0.84992    0.09985   1.00
O3       0.54801    0.94794    0.27000   1.00
C4       0.49992    1.00041    0.22900   1.00
C3c      0.47379    0.97724    0.20757   1.00
H1       0.45303    0.95898    0.22275   1.00
C3d      0.52636    1.02442    0.20865   1.00
C3       0.47433    0.97677    0.16646   1.00
O2       0.44487    0.95713    0.14752   1.00
C3       0.52748    1.02346    0.16773   1.00
H1       0.54919    1.04133    0.15343   1.00
C2       0.50155    0.99988    0.14561   1.00
C5       0.58736    0.96009    0.27121   1.00
H2       0.59879    0.96176    0.30162   1.00
H2       0.59104    0.98932    0.25734   1.00
C5       0.61140    0.93018    0.24871   1.00
H2       0.59929    0.92770    0.21863   1.00
H2       0.60781    0.90119    0.26302   1.00
C5       0.65473    0.94198    0.24738   1.00
H2       0.66694    0.94477    0.27732   1.00
H2       0.65849    0.97027    0.23189   1.00
C5       0.67851    0.91073    0.22555   1.00
C5       0.53936    1.08224    0.23895   1.00
C5       0.45681    0.91850    0.13930   1.00
H2       0.51413    1.07912    0.25912   1.00
H2       0.52984    1.09926    0.21288   1.00
H2       0.46305    0.90256    0.16700   1.00
H2       0.48386    0.91739    0.12105   1.00
H2       0.44371    0.88114    0.05970   1.00
H2       0.53765    1.13129    0.30753   1.00
H2       0.53799    1.15912    0.26237   1.00
C2       0.50267    0.99977    0.35395   1.00
C3       0.47680    1.02489    0.33403   1.00
O2       0.45959    1.05579    0.35326   1.00
C3       0.52588    0.97383    0.33174   1.00
H1       0.54523    0.95353    0.34615   1.00
C3a      0.47544    1.02430    0.29287   1.00
H1       0.45713    1.04525    0.27798   1.00
C3b      0.52536    0.97418    0.29078   1.00
C4       0.50008    0.99959    0.27100   1.00
O3       0.55463    1.04551    0.22833   1.00
C5       0.42059    1.04669    0.36280   1.00
H2       0.40310    1.04014    0.33609   1.00
C5       0.40352    1.08231    0.38326   1.00
H2       0.41916    1.02103    0.38274   1.00
H2       0.39530    1.10419    0.36068   1.00
H2       0.42729    1.09571    0.40093   1.00
C5       0.36820    1.07238    0.40918   1.00
H2       0.34609    1.05629    0.39176   1.00
C5       0.34937    1.10977    0.42547   1.00
H2       0.37702    1.05438    0.43493   1.00
C5       0.57164    1.10463    0.25983   1.00
H2       0.59385    1.11359    0.23785   1.00
H2       0.58641    1.08432    0.28048   1.00
C5       0.55576    1.14033    0.28200   1.00
C5       0.58984    1.16499    0.29775   1.00
H2       0.37955    0.85609    0.05714   1.00
H2       0.41094    0.81258    0.06553   1.00
H2       0.38311    0.83433    0.10677   1.00
H2       0.70890    0.92253    0.21895   1.00
H2       0.68107    0.88351    0.24449   1.00
H2       0.66318    0.90302    0.19707   1.00
H2       0.33788    1.10395    0.45613   1.00
H2       0.37207    1.13405    0.42656   1.00
H2       0.32421    1.11900    0.40577   1.00
H2       0.61836    1.14837    0.29366   1.00
H2       0.59130    1.19377    0.28116   1.00
H2       0.58510    1.17107    0.33010   1.00
C5       0.92285    0.60061    0.88218   1.00
H2       0.90760    0.57645    0.89745   1.00
H2       0.90150    0.61252    0.86090   1.00
C5       0.93456    0.63216    0.91194   1.00
C5       0.89978    0.65903    0.92123   1.00
H2       0.95895    0.65008    0.90015   1.00
O3       1.04801    0.55206    0.73000   1.00
C4       0.99992    0.49959    0.77100   1.00
C3c      0.97379    0.52276    0.79243   1.00
H1       0.95303    0.54102    0.77725   1.00
C3d      1.02636    0.47558    0.79135   1.00
C3       0.97433    0.52323    0.83354   1.00
O2       0.94487    0.54287    0.85248   1.00
C3       1.02748    0.47654    0.83227   1.00
H1       1.04919    0.45867    0.84657   1.00
C2       1.00155    0.50012    0.85439   1.00
C5       1.08736    0.53991    0.72879   1.00
H2       1.09879    0.53824    0.69838   1.00
H2       1.09104    0.51068    0.74266   1.00
C5       1.11140    0.56982    0.75129   1.00
H2       1.09929    0.57230    0.78137   1.00
H2       1.10781    0.59881    0.73698   1.00
C5       1.15473    0.55802    0.75262   1.00
H2       1.16694    0.55523    0.72268   1.00
H2       1.15849    0.52973    0.76811   1.00
C5       1.17851    0.58927    0.77445   1.00
C5       1.03936    0.41776    0.76105   1.00
C5       0.95681    0.58150    0.86070   1.00
H2       1.01413    0.42088    0.74088   1.00
H2       1.02984    0.40074    0.78712   1.00
H2       0.96305    0.59744    0.83300   1.00
H2       0.98386    0.58261    0.87895   1.00
H2       0.94371    0.61886    0.94030   1.00
H2       1.03765    0.36871    0.69247   1.00
H2       1.03799    0.34088    0.73763   1.00
C2       1.00267    0.50023    0.64605   1.00
C3       0.97680    0.47511    0.66597   1.00
O2       0.95959    0.44421    0.64674   1.00
C3       1.02588    0.52617    0.66826   1.00
H1       1.04523    0.54647    0.65385   1.00
C3a      0.97544    0.47570    0.70713   1.00
H1       0.95713    0.45475    0.72202   1.00
C3b      1.02536    0.52582    0.70922   1.00
C4       1.00008    0.50041    0.72900   1.00
O3       1.05463    0.45449    0.77167   1.00
C5       0.92059    0.45331    0.63720   1.00
H2       0.90310    0.45986    0.66391   1.00
C5       0.90352    0.41769    0.61674   1.00
H2       0.91916    0.47897    0.61726   1.00
H2       0.89530    0.39581    0.63932   1.00
H2       0.92729    0.40429    0.59907   1.00
C5       0.86820    0.42762    0.59082   1.00
H2       0.84609    0.44371    0.60824   1.00
C5       0.84937    0.39023    0.57453   1.00
H2       0.87702    0.44562    0.56507   1.00
C5       1.07164    0.39537    0.74017   1.00
H2       1.09385    0.38641    0.76215   1.00
H2       1.08641    0.41568    0.71952   1.00
C5       1.05576    0.35967    0.71800   1.00
C5       1.08984    0.33501    0.70225   1.00
H2       0.87955    0.64391    0.94286   1.00
H2       0.91094    0.68742    0.93447   1.00
H2       0.88311    0.66567    0.89323   1.00
H2       1.20890    0.57747    0.78105   1.00
H2       1.18107    0.61649    0.75551   1.00
H2       1.16318    0.59698    0.80293   1.00
H2       0.83788    0.39605    0.54387   1.00
H2       0.87207    0.36595    0.57344   1.00
H2       0.82421    0.38100    0.59423   1.00
H2       1.11836    0.35163    0.70634   1.00
H2       1.09130    0.30623    0.71884   1.00
H2       1.08510    0.32893    0.66990   1.00
C5       1.10061    0.88218    0.42285   1.00
H2       1.07645    0.89745    0.40760   1.00
H2       1.11252    0.86090    0.40150   1.00
C5       1.13216    0.91194    0.43456   1.00
C5       1.15903    0.92123    0.39978   1.00
H2       1.15008    0.90015    0.45895   1.00
O3       1.05206    0.73000    0.54801   1.00
C4       0.99959    0.77100    0.49992   1.00
C3c      1.02276    0.79243    0.47379   1.00
H1       1.04102    0.77725    0.45303   1.00
C3d      0.97558    0.79135    0.52636   1.00
C3       1.02323    0.83354    0.47433   1.00
O2       1.04287    0.85248    0.44487   1.00
C3       0.97654    0.83227    0.52748   1.00
H1       0.95867    0.84657    0.54919   1.00
C2       1.00012    0.85439    0.50155   1.00
C5       1.03991    0.72879    0.58736   1.00
H2       1.03824    0.69838    0.59879   1.00
H2       1.01068    0.74266    0.59104   1.00
C5       1.06982    0.75129    0.61140   1.00
H2       1.07230    0.78137    0.59929   1.00
H2       1.09881    0.73698    0.60781   1.00
C5       1.05802    0.75262    0.65473   1.00
H2       1.05523    0.72268    0.66694   1.00
H2       1.02973    0.76811    0.65849   1.00
C5       1.08927    0.77445    0.67851   1.00
C5       0.91776    0.76105    0.53936   1.00
C5       1.08150    0.86070    0.45681   1.00
H2       0.92088    0.74088    0.51413   1.00
H2       0.90074    0.78712    0.52984   1.00
H2       1.09744    0.83300    0.46305   1.00
H2       1.08261    0.87895    0.48386   1.00
H2       1.11886    0.94030    0.44371   1.00
H2       0.86871    0.69247    0.53765   1.00
H2       0.84088    0.73763    0.53799   1.00
C2       1.00023    0.64605    0.50267   1.00
C3       0.97511    0.66597    0.47680   1.00
O2       0.94421    0.64674    0.45959   1.00
C3       1.02617    0.66826    0.52588   1.00
H1       1.04647    0.65385    0.54523   1.00
C3a      0.97570    0.70713    0.47544   1.00
H1       0.95475    0.72202    0.45713   1.00
C3b      1.02582    0.70922    0.52536   1.00
C4       1.00041    0.72900    0.50008   1.00
O3       0.95449    0.77167    0.55463   1.00
C5       0.95331    0.63720    0.42059   1.00
H2       0.95986    0.66391    0.40310   1.00
C5       0.91769    0.61674    0.40352   1.00
H2       0.97897    0.61726    0.41916   1.00
H2       0.89581    0.63932    0.39530   1.00
H2       0.90429    0.59907    0.42729   1.00
C5       0.92762    0.59082    0.36820   1.00
H2       0.94371    0.60824    0.34609   1.00
C5       0.89023    0.57453    0.34937   1.00
H2       0.94562    0.56507    0.37702   1.00
C5       0.89537    0.74017    0.57164   1.00
H2       0.88641    0.76215    0.59385   1.00
H2       0.91568    0.71952    0.58641   1.00
C5       0.85967    0.71800    0.55576   1.00
C5       0.83501    0.70225    0.58984   1.00
H2       1.14391    0.94286    0.37955   1.00
H2       1.18742    0.93447    0.41094   1.00
H2       1.16567    0.89323    0.38311   1.00
H2       1.07747    0.78105    0.70890   1.00
H2       1.11649    0.75551    0.68107   1.00
H2       1.09698    0.80293    0.66318   1.00
H2       0.89605    0.54387    0.33788   1.00
H2       0.86595    0.57344    0.37207   1.00
H2       0.88100    0.59423    0.32421   1.00
H2       0.85163    0.70634    0.61836   1.00
H2       0.80623    0.71884    0.59130   1.00
H2       0.82893    0.66990    0.58510   1.00
C5       0.61782    0.42285    0.39939   1.00
H2       0.60255    0.40760    0.42355   1.00
H2       0.63910    0.40150    0.38748   1.00
C5       0.58806    0.43456    0.36784   1.00
C5       0.57877    0.39978    0.34097   1.00
H2       0.59985    0.45895    0.34992   1.00
O3       0.77000    0.54801    0.44794   1.00
C4       0.72900    0.49992    0.50041   1.00
C3c      0.70757    0.47379    0.47724   1.00
H1       0.72275    0.45303    0.45898   1.00
C3d      0.70865    0.52636    0.52442   1.00
C3       0.66646    0.47433    0.47677   1.00
O2       0.64752    0.44487    0.45713   1.00
C3       0.66773    0.52748    0.52346   1.00
H1       0.65343    0.54919    0.54133   1.00
C2       0.64561    0.50155    0.49988   1.00
C5       0.77121    0.58736    0.46009   1.00
H2       0.80162    0.59879    0.46176   1.00
H2       0.75734    0.59104    0.48932   1.00
C5       0.74871    0.61140    0.43018   1.00
H2       0.71863    0.59929    0.42770   1.00
H2       0.76302    0.60781    0.40119   1.00
C5       0.74738    0.65473    0.44198   1.00
H2       0.77732    0.66694    0.44477   1.00
H2       0.73189    0.65849    0.47027   1.00
C5       0.72555    0.67851    0.41073   1.00
C5       0.73895    0.53936    0.58224   1.00
C5       0.63930    0.45681    0.41850   1.00
H2       0.75912    0.51413    0.57912   1.00
H2       0.71288    0.52984    0.59926   1.00
H2       0.66700    0.46305    0.40256   1.00
H2       0.62105    0.48386    0.41739   1.00
H2       0.55970    0.44371    0.38114   1.00
H2       0.80753    0.53765    0.63129   1.00
H2       0.76237    0.53799    0.65912   1.00
C2       0.85395    0.50267    0.49977   1.00
C3       0.83403    0.47680    0.52489   1.00
O2       0.85326    0.45959    0.55579   1.00
C3       0.83174    0.52588    0.47383   1.00
H1       0.84615    0.54523    0.45353   1.00
C3a      0.79287    0.47544    0.52430   1.00
H1       0.77798    0.45713    0.54525   1.00
C3b      0.79078    0.52536    0.47418   1.00
C4       0.77100    0.50008    0.49959   1.00
O3       0.72833    0.55463    0.54551   1.00
C5       0.86280    0.42059    0.54669   1.00
H2       0.83609    0.40310    0.54014   1.00
C5       0.88326    0.40352    0.58231   1.00
H2       0.88274    0.41916    0.52103   1.00
H2       0.86068    0.39530    0.60419   1.00
H2       0.90093    0.42729    0.59571   1.00
C5       0.90918    0.36820    0.57238   1.00
H2       0.89176    0.34609    0.55629   1.00
C5       0.92547    0.34937    0.60977   1.00
H2       0.93493    0.37702    0.55438   1.00
C5       0.75983    0.57164    0.60463   1.00
H2       0.73785    0.59385    0.61359   1.00
H2       0.78048    0.58641    0.58432   1.00
C5       0.78200    0.55576    0.64033   1.00
C5       0.79775    0.58984    0.66499   1.00
H2       0.55714    0.37955    0.35609   1.00
H2       0.56553    0.41094    0.31258   1.00
H2       0.60677    0.38311    0.33433   1.00
H2       0.71895    0.70890    0.42253   1.00
H2       0.74449    0.68107    0.38351   1.00
H2       0.69707    0.66318    0.40302   1.00
H2       0.95613    0.33788    0.60395   1.00
H2       0.92656    0.37207    0.63405   1.00
H2       0.90577    0.32421    0.61900   1.00
H2       0.79366    0.61836    0.64837   1.00
H2       0.78116    0.59130    0.69377   1.00
H2       0.83010    0.58510    0.67107   1.00
C5       1.38218    0.42285    0.60061   1.00
H2       1.39745    0.40760    0.57645   1.00
H2       1.36090    0.40150    0.61252   1.00
C5       1.41194    0.43456    0.63216   1.00
C5       1.42123    0.39978    0.65903   1.00
H2       1.40015    0.45895    0.65008   1.00
O3       1.23000    0.54801    0.55206   1.00
C4       1.27100    0.49992    0.49959   1.00
C3c      1.29243    0.47379    0.52276   1.00
H1       1.27725    0.45303    0.54102   1.00
C3d      1.29135    0.52636    0.47558   1.00
C3       1.33354    0.47433    0.52323   1.00
O2       1.35248    0.44487    0.54287   1.00
C3       1.33227    0.52748    0.47654   1.00
H1       1.34657    0.54919    0.45867   1.00
C2       1.35439    0.50155    0.50012   1.00
C5       1.22879    0.58736    0.53991   1.00
H2       1.19838    0.59879    0.53824   1.00
H2       1.24266    0.59104    0.51068   1.00
C5       1.25129    0.61140    0.56982   1.00
H2       1.28137    0.59929    0.57230   1.00
H2       1.23698    0.60781    0.59881   1.00
C5       1.25262    0.65473    0.55802   1.00
H2       1.22268    0.66694    0.55523   1.00
H2       1.26811    0.65849    0.52973   1.00
C5       1.27445    0.67851    0.58927   1.00
C5       1.26105    0.53936    0.41776   1.00
C5       1.36070    0.45681    0.58150   1.00
H2       1.24088    0.51413    0.42088   1.00
H2       1.28712    0.52984    0.40074   1.00
H2       1.33300    0.46305    0.59744   1.00
H2       1.37895    0.48386    0.58261   1.00
H2       1.44030    0.44371    0.61886   1.00
H2       1.19247    0.53765    0.36871   1.00
H2       1.23763    0.53799    0.34088   1.00
C2       1.14605    0.50267    0.50023   1.00
C3       1.16597    0.47680    0.47511   1.00
O2       1.14674    0.45959    0.44421   1.00
C3       1.16826    0.52588    0.52617   1.00
H1       1.15385    0.54523    0.54647   1.00
C3a      1.20713    0.47544    0.47570   1.00
H1       1.22202    0.45713    0.45475   1.00
C3b      1.20922    0.52536    0.52582   1.00
C4       1.22900    0.50008    0.50041   1.00
O3       1.27167    0.55463    0.45449   1.00
C5       1.13720    0.42059    0.45331   1.00
H2       1.16391    0.40310    0.45986   1.00
C5       1.11674    0.40352    0.41769   1.00
H2       1.11726    0.41916    0.47897   1.00
H2       1.13932    0.39530    0.39581   1.00
H2       1.09907    0.42729    0.40429   1.00
C5       1.09082    0.36820    0.42762   1.00
H2       1.10824    0.34609    0.44371   1.00
C5       1.07453    0.34937    0.39023   1.00
H2       1.06507    0.37702    0.44562   1.00
C5       1.24017    0.57164    0.39537   1.00
H2       1.26215    0.59385    0.38641   1.00
H2       1.21952    0.58641    0.41568   1.00
C5       1.21800    0.55576    0.35967   1.00
C5       1.20225    0.58984    0.33501   1.00
H2       1.44286    0.37955    0.64391   1.00
H2       1.43447    0.41094    0.68742   1.00
H2       1.39323    0.38311    0.66567   1.00
H2       1.28105    0.70890    0.57747   1.00
H2       1.25551    0.68107    0.61649   1.00
H2       1.30293    0.66318    0.59698   1.00
H2       1.04387    0.33788    0.39605   1.00
H2       1.07344    0.37207    0.36595   1.00
H2       1.09423    0.32421    0.38100   1.00
H2       1.20634    0.61836    0.35163   1.00
H2       1.21884    0.59130    0.30623   1.00
H2       1.16990    0.58510    0.32893   1.00
C5       0.89939    0.11782    0.42285   1.00
H2       0.92355    0.10255    0.40760   1.00
H2       0.88748    0.13910    0.40150   1.00
C5       0.86784    0.08806    0.43456   1.00
C5       0.84097    0.07877    0.39978   1.00
H2       0.84992    0.09985    0.45895   1.00
O3       0.94794    0.27000    0.54801   1.00
C4       1.00041    0.22900    0.49992   1.00
C3c      0.97724    0.20757    0.47379   1.00
H1       0.95898    0.22275    0.45303   1.00
C3d      1.02442    0.20865    0.52636   1.00
C3       0.97677    0.16646    0.47433   1.00
O2       0.95713    0.14752    0.44487   1.00
C3       1.02346    0.16773    0.52748   1.00
H1       1.04133    0.15343    0.54919   1.00
C2       0.99988    0.14561    0.50155   1.00
C5       0.96009    0.27121    0.58736   1.00
H2       0.96176    0.30162    0.59879   1.00
H2       0.98932    0.25734    0.59104   1.00
C5       0.93018    0.24871    0.61140   1.00
H2       0.92770    0.21863    0.59929   1.00
H2       0.90119    0.26302    0.60781   1.00
C5       0.94198    0.24738    0.65473   1.00
H2       0.94477    0.27732    0.66694   1.00
H2       0.97027    0.23189    0.65849   1.00
C5       0.91073    0.22555    0.67851   1.00
C5       1.08224    0.23895    0.53936   1.00
C5       0.91850    0.13930    0.45681   1.00
H2       1.07912    0.25912    0.51413   1.00
H2       1.09926    0.21288    0.52984   1.00
H2       0.90256    0.16700    0.46305   1.00
H2       0.91739    0.12105    0.48386   1.00
H2       0.88114    0.05970    0.44371   1.00
H2       1.13129    0.30753    0.53765   1.00
H2       1.15912    0.26237    0.53799   1.00
C2       0.99977    0.35395    0.50267   1.00
C3       1.02489    0.33403    0.47680   1.00
O2       1.05579    0.35326    0.45959   1.00
C3       0.97383    0.33174    0.52588   1.00
H1       0.95353    0.34615    0.54523   1.00
C3a      1.02430    0.29287    0.47544   1.00
H1       1.04525    0.27798    0.45713   1.00
C3b      0.97418    0.29078    0.52536   1.00
C4       0.99959    0.27100    0.50008   1.00
O3       1.04551    0.22833    0.55463   1.00
C5       1.04669    0.36280    0.42059   1.00
H2       1.04014    0.33609    0.40310   1.00
C5       1.08231    0.38326    0.40352   1.00
H2       1.02103    0.38274    0.41916   1.00
H2       1.10419    0.36068    0.39530   1.00
H2       1.09571    0.40093    0.42729   1.00
C5       1.07238    0.40918    0.36820   1.00
H2       1.05629    0.39176    0.34609   1.00
C5       1.10977    0.42547    0.34937   1.00
H2       1.05438    0.43493    0.37702   1.00
C5       1.10463    0.25983    0.57164   1.00
H2       1.11359    0.23785    0.59385   1.00
H2       1.08432    0.28048    0.58641   1.00
C5       1.14033    0.28200    0.55576   1.00
C5       1.16499    0.29775    0.58984   1.00
H2       0.85609    0.05714    0.37955   1.00
H2       0.81258    0.06553    0.41094   1.00
H2       0.83433    0.10677    0.38311   1.00
H2       0.92253    0.21895    0.70890   1.00
H2       0.88351    0.24449    0.68107   1.00
H2       0.90302    0.19707    0.66318   1.00
H2       1.10395    0.45613    0.33788   1.00
H2       1.13405    0.42656    0.37207   1.00
H2       1.11900    0.40577    0.32421   1.00
H2       1.14837    0.29366    0.61836   1.00
H2       1.19377    0.28116    0.59130   1.00
H2       1.17107    0.33010    0.58510   1.00
C5       0.92285    0.39939    0.11782   1.00
H2       0.90760    0.42355    0.10255   1.00
H2       0.90150    0.38748    0.13910   1.00
C5       0.93456    0.36784    0.08806   1.00
C5       0.89978    0.34097    0.07877   1.00
H2       0.95895    0.34992    0.09985   1.00
O3       1.04801    0.44794    0.27000   1.00
C4       0.99992    0.50041    0.22900   1.00
C3c      0.97379    0.47724    0.20757   1.00
H1       0.95303    0.45898    0.22275   1.00
C3d      1.02636    0.52442    0.20865   1.00
C3       0.97433    0.47677    0.16646   1.00
O2       0.94487    0.45713    0.14752   1.00
C3       1.02748    0.52346    0.16773   1.00
H1       1.04919    0.54133    0.15343   1.00
C2       1.00155    0.49988    0.14561   1.00
C5       1.08736    0.46009    0.27121   1.00
H2       1.09879    0.46176    0.30162   1.00
H2       1.09104    0.48932    0.25734   1.00
C5       1.11140    0.43018    0.24871   1.00
H2       1.09929    0.42770    0.21863   1.00
H2       1.10781    0.40119    0.26302   1.00
C5       1.15473    0.44198    0.24738   1.00
H2       1.16694    0.44477    0.27732   1.00
H2       1.15849    0.47027    0.23189   1.00
C5       1.17851    0.41073    0.22555   1.00
C5       1.03936    0.58224    0.23895   1.00
C5       0.95681    0.41850    0.13930   1.00
H2       1.01413    0.57912    0.25912   1.00
H2       1.02984    0.59926    0.21288   1.00
H2       0.96305    0.40256    0.16700   1.00
H2       0.98386    0.41739    0.12105   1.00
H2       0.94371    0.38114    0.05970   1.00
H2       1.03765    0.63129    0.30753   1.00
H2       1.03799    0.65912    0.26237   1.00
C2       1.00267    0.49977    0.35395   1.00
C3       0.97680    0.52489    0.33403   1.00
O2       0.95959    0.55579    0.35326   1.00
C3       1.02588    0.47383    0.33174   1.00
H1       1.04523    0.45353    0.34615   1.00
C3a      0.97544    0.52430    0.29287   1.00
H1       0.95713    0.54525    0.27798   1.00
C3b      1.02536    0.47418    0.29078   1.00
C4       1.00008    0.49959    0.27100   1.00
O3       1.05463    0.54551    0.22833   1.00
C5       0.92059    0.54669    0.36280   1.00
H2       0.90310    0.54014    0.33609   1.00
C5       0.90352    0.58231    0.38326   1.00
H2       0.91916    0.52103    0.38274   1.00
H2       0.89530    0.60419    0.36068   1.00
H2       0.92729    0.59571    0.40093   1.00
C5       0.86820    0.57238    0.40918   1.00
H2       0.84609    0.55629    0.39176   1.00
C5       0.84937    0.60977    0.42547   1.00
H2       0.87702    0.55438    0.43493   1.00
C5       1.07164    0.60463    0.25983   1.00
H2       1.09385    0.61359    0.23785   1.00
H2       1.08641    0.58432    0.28048   1.00
C5       1.05576    0.64033    0.28200   1.00
C5       1.08984    0.66499    0.29775   1.00
H2       0.87955    0.35609    0.05714   1.00
H2       0.91094    0.31258    0.06553   1.00
H2       0.88311    0.33433    0.10677   1.00
H2       1.20890    0.42253    0.21895   1.00
H2       1.18107    0.38351    0.24449   1.00
H2       1.16318    0.40302    0.19707   1.00
H2       0.83788    0.60395    0.45613   1.00
H2       0.87207    0.63405    0.42656   1.00
H2       0.82421    0.61900    0.40577   1.00
H2       1.11836    0.64837    0.29366   1.00
H2       1.09130    0.69377    0.28116   1.00
H2       1.08510    0.67107    0.33010   1.00
