data_IRMOF10_SG202_Ligand4_label_j.

_audit_creation_method             'generated by an auxiliary program of Tobunporous'

_symmetry_space_group_name_H-M     'P 1'
_symmetry_Int_Tables_number        1
_symmetry_cell_setting             triclinic

_cell_length_a                    34.2800
_cell_length_b                    34.2800
_cell_length_c                    34.2800
_cell_angle_alpha                 90.0000
_cell_angle_beta                  90.0000
_cell_angle_gamma                 90.0000

loop_
_atom_site_label
_atom_site_fract_x
_atom_site_fract_y
_atom_site_fract_z
_atom_site_occupancy
O1       0.75000    0.75000    0.75000   1.00
Zn1      0.71720    0.78280    0.78280   1.00
Zn1      0.78280    0.71720    0.78280   1.00
Zn1      0.78280    0.78280    0.71720   1.00
Zn1      0.71720    0.71720    0.71720   1.00
O2       0.72650    0.77350    0.83820   1.00
O2       0.72650    0.83820    0.77350   1.00
O2       0.66180    0.77350    0.77350   1.00
O2       0.77350    0.72650    0.83820   1.00
O2       0.83820    0.72650    0.77350   1.00
O2       0.77350    0.66180    0.77350   1.00
O2       0.77350    0.83820    0.72650   1.00
O2       0.83820    0.77350    0.72650   1.00
O2       0.77350    0.77350    0.66180   1.00
O2       0.66180    0.72650    0.72650   1.00
O2       0.72650    0.66180    0.72650   1.00
O2       0.72650    0.72650    0.66180   1.00
C1       0.75000    0.75000    0.85520   1.00
C1       0.75000    0.85520    0.75000   1.00
C1       0.64480    0.75000    0.75000   1.00
C1       0.85520    0.75000    0.75000   1.00
C1       0.75000    0.64480    0.75000   1.00
C1       0.75000    0.75000    0.64480   1.00
O1       0.25000    0.25000    0.75000   1.00
Zn1      0.21720    0.28280    0.78280   1.00
Zn1      0.28280    0.21720    0.78280   1.00
Zn1      0.28280    0.28280    0.71720   1.00
Zn1      0.21720    0.21720    0.71720   1.00
O2       0.22650    0.27350    0.83820   1.00
O2       0.22650    0.33820    0.77350   1.00
O2       0.16180    0.27350    0.77350   1.00
O2       0.27350    0.22650    0.83820   1.00
O2       0.33820    0.22650    0.77350   1.00
O2       0.27350    0.16180    0.77350   1.00
O2       0.27350    0.33820    0.72650   1.00
O2       0.33820    0.27350    0.72650   1.00
O2       0.27350    0.27350    0.66180   1.00
O2       0.16180    0.22650    0.72650   1.00
O2       0.22650    0.16180    0.72650   1.00
O2       0.22650    0.22650    0.66180   1.00
C1       0.25000    0.25000    0.85520   1.00
C1       0.25000    0.35520    0.75000   1.00
C1       0.14480    0.25000    0.75000   1.00
C1       0.35520    0.25000    0.75000   1.00
C1       0.25000    0.14480    0.75000   1.00
C1       0.25000    0.25000    0.64480   1.00
O1       0.25000    0.75000    0.25000   1.00
Zn1      0.21720    0.78280    0.28280   1.00
Zn1      0.28280    0.71720    0.28280   1.00
Zn1      0.28280    0.78280    0.21720   1.00
Zn1      0.21720    0.71720    0.21720   1.00
O2       0.22650    0.77350    0.33820   1.00
O2       0.22650    0.83820    0.27350   1.00
O2       0.16180    0.77350    0.27350   1.00
O2       0.27350    0.72650    0.33820   1.00
O2       0.33820    0.72650    0.27350   1.00
O2       0.27350    0.66180    0.27350   1.00
O2       0.27350    0.83820    0.22650   1.00
O2       0.33820    0.77350    0.22650   1.00
O2       0.27350    0.77350    0.16180   1.00
O2       0.16180    0.72650    0.22650   1.00
O2       0.22650    0.66180    0.22650   1.00
O2       0.22650    0.72650    0.16180   1.00
C1       0.25000    0.75000    0.35520   1.00
C1       0.25000    0.85520    0.25000   1.00
C1       0.14480    0.75000    0.25000   1.00
C1       0.35520    0.75000    0.25000   1.00
C1       0.25000    0.64480    0.25000   1.00
C1       0.25000    0.75000    0.14480   1.00
O1       0.75000    0.25000    0.25000   1.00
Zn1      0.71720    0.28280    0.28280   1.00
Zn1      0.78280    0.21720    0.28280   1.00
Zn1      0.78280    0.28280    0.21720   1.00
Zn1      0.71720    0.21720    0.21720   1.00
O2       0.72650    0.27350    0.33820   1.00
O2       0.72650    0.33820    0.27350   1.00
O2       0.66180    0.27350    0.27350   1.00
O2       0.77350    0.22650    0.33820   1.00
O2       0.83820    0.22650    0.27350   1.00
O2       0.77350    0.16180    0.27350   1.00
O2       0.77350    0.33820    0.22650   1.00
O2       0.83820    0.27350    0.22650   1.00
O2       0.77350    0.27350    0.16180   1.00
O2       0.66180    0.22650    0.22650   1.00
O2       0.72650    0.16180    0.22650   1.00
O2       0.72650    0.22650    0.16180   1.00
C1       0.75000    0.25000    0.35520   1.00
C1       0.75000    0.35520    0.25000   1.00
C1       0.64480    0.25000    0.25000   1.00
C1       0.85520    0.25000    0.25000   1.00
C1       0.75000    0.14480    0.25000   1.00
C1       0.75000    0.25000    0.14480   1.00
O1       0.25000    0.25000    0.25000   1.00
Zn1      0.28280    0.21720    0.21720   1.00
Zn1      0.21720    0.28280    0.21720   1.00
Zn1      0.21720    0.21720    0.28280   1.00
Zn1      0.28280    0.28280    0.28280   1.00
O2       0.27350    0.22650    0.16180   1.00
O2       0.27350    0.16180    0.22650   1.00
O2       0.33820    0.22650    0.22650   1.00
O2       0.22650    0.27350    0.16180   1.00
O2       0.16180    0.27350    0.22650   1.00
O2       0.22650    0.33820    0.22650   1.00
O2       0.22650    0.16180    0.27350   1.00
O2       0.16180    0.22650    0.27350   1.00
O2       0.22650    0.22650    0.33820   1.00
O2       0.33820    0.27350    0.27350   1.00
O2       0.27350    0.33820    0.27350   1.00
O2       0.27350    0.27350    0.33820   1.00
C1       0.25000    0.25000    0.14480   1.00
C1       0.25000    0.14480    0.25000   1.00
C1       0.35520    0.25000    0.25000   1.00
C1       0.14480    0.25000    0.25000   1.00
C1       0.25000    0.35520    0.25000   1.00
C1       0.25000    0.25000    0.35520   1.00
O1       0.75000    0.75000    0.25000   1.00
Zn1      0.78280    0.71720    0.21720   1.00
Zn1      0.71720    0.78280    0.21720   1.00
Zn1      0.71720    0.71720    0.28280   1.00
Zn1      0.78280    0.78280    0.28280   1.00
O2       0.77350    0.72650    0.16180   1.00
O2       0.77350    0.66180    0.22650   1.00
O2       0.83820    0.72650    0.22650   1.00
O2       0.72650    0.77350    0.16180   1.00
O2       0.66180    0.77350    0.22650   1.00
O2       0.72650    0.83820    0.22650   1.00
O2       0.72650    0.66180    0.27350   1.00
O2       0.66180    0.72650    0.27350   1.00
O2       0.72650    0.72650    0.33820   1.00
O2       0.83820    0.77350    0.27350   1.00
O2       0.77350    0.83820    0.27350   1.00
O2       0.77350    0.77350    0.33820   1.00
C1       0.75000    0.75000    0.14480   1.00
C1       0.75000    0.64480    0.25000   1.00
C1       0.85520    0.75000    0.25000   1.00
C1       0.64480    0.75000    0.25000   1.00
C1       0.75000    0.85520    0.25000   1.00
C1       0.75000    0.75000    0.35520   1.00
O1       0.75000    0.25000    0.75000   1.00
Zn1      0.78280    0.21720    0.71720   1.00
Zn1      0.71720    0.28280    0.71720   1.00
Zn1      0.71720    0.21720    0.78280   1.00
Zn1      0.78280    0.28280    0.78280   1.00
O2       0.77350    0.22650    0.66180   1.00
O2       0.77350    0.16180    0.72650   1.00
O2       0.83820    0.22650    0.72650   1.00
O2       0.72650    0.27350    0.66180   1.00
O2       0.66180    0.27350    0.72650   1.00
O2       0.72650    0.33820    0.72650   1.00
O2       0.72650    0.16180    0.77350   1.00
O2       0.66180    0.22650    0.77350   1.00
O2       0.72650    0.22650    0.83820   1.00
O2       0.83820    0.27350    0.77350   1.00
O2       0.77350    0.33820    0.77350   1.00
O2       0.77350    0.27350    0.83820   1.00
C1       0.75000    0.25000    0.64480   1.00
C1       0.75000    0.14480    0.75000   1.00
C1       0.85520    0.25000    0.75000   1.00
C1       0.64480    0.25000    0.75000   1.00
C1       0.75000    0.35520    0.75000   1.00
C1       0.75000    0.25000    0.85520   1.00
O1       0.25000    0.75000    0.75000   1.00
Zn1      0.28280    0.71720    0.71720   1.00
Zn1      0.21720    0.78280    0.71720   1.00
Zn1      0.21720    0.71720    0.78280   1.00
Zn1      0.28280    0.78280    0.78280   1.00
O2       0.27350    0.72650    0.66180   1.00
O2       0.27350    0.66180    0.72650   1.00
O2       0.33820    0.72650    0.72650   1.00
O2       0.22650    0.77350    0.66180   1.00
O2       0.16180    0.77350    0.72650   1.00
O2       0.22650    0.83820    0.72650   1.00
O2       0.22650    0.66180    0.77350   1.00
O2       0.16180    0.72650    0.77350   1.00
O2       0.22650    0.72650    0.83820   1.00
O2       0.33820    0.77350    0.77350   1.00
O2       0.27350    0.83820    0.77350   1.00
O2       0.27350    0.77350    0.83820   1.00
C1       0.25000    0.75000    0.64480   1.00
C1       0.25000    0.64480    0.75000   1.00
C1       0.35520    0.75000    0.75000   1.00
C1       0.14480    0.75000    0.75000   1.00
C1       0.25000    0.85520    0.75000   1.00
C1       0.25000    0.75000    0.85520   1.00
C4       0.74535    0.74886    0.98025   1.00
C4       0.74415    0.74985    1.02191   1.00
C3       0.75144    0.71366    0.95897   1.00
C3       0.74486    0.71531    1.04504   1.00
C3       0.74036    0.78415    0.95854   1.00
C3       0.74212    0.78653    1.04170   1.00
C2       0.74585    0.74651    0.89595   1.00
C2       0.74368    0.75189    1.10622   1.00
C3       0.75151    0.71241    0.91811   1.00
C3       0.74483    0.71622    1.08591   1.00
C3       0.74040    0.78159    0.91696   1.00
C3       0.74236    0.78621    1.08336   1.00
H1       0.75646    0.68767    0.97237   1.00
H1       0.74503    0.68816    1.03306   1.00
C5       0.73574    0.82073    0.97835   1.00
C5       0.73968    0.82222    1.01998   1.00
H1       0.75590    0.68607    0.90451   1.00
H1       0.74553    0.69028    1.10091   1.00
H1       0.73668    0.80601    0.90052   1.00
H1       0.74121    0.81171    1.09848   1.00
C6       0.72635    0.85714    0.95515   1.00
C6       0.74174    0.86093    1.04119   1.00
H2       0.70417    0.85020    0.93345   1.00
H2       0.76474    0.85955    1.06310   1.00
H2       0.71142    0.87881    0.97286   1.00
H2       0.75230    0.88411    1.02228   1.00
C6       0.76321    0.87637    0.93606   1.00
C6       0.70176    0.87365    1.05942   1.00
H2       0.78146    0.85374    0.92292   1.00
H2       0.68816    0.84865    1.07383   1.00
C6       0.75624    0.90874    0.90459   1.00
C6       0.70219    0.90837    1.08911   1.00
H2       0.78088    0.88884    0.95949   1.00
H2       0.68214    0.88123    1.03546   1.00
C6       0.73673    0.89194    0.86735   1.00
C6       0.72439    0.89764    1.12708   1.00
C6       0.73092    0.94253    0.92074   1.00
C6       0.72059    0.94552    1.07107   1.00
C6       0.79637    0.92592    0.89245   1.00
C6       0.65943    0.91809    1.10054   1.00
H2       0.75358    0.86758    0.85558   1.00
H2       0.71250    0.87114    1.14020   1.00
H2       0.70732    0.88149    0.87330   1.00
H2       0.75529    0.89277    1.12154   1.00
H2       0.73447    0.91410    0.84459   1.00
H2       0.72221    0.92098    1.14863   1.00
H2       0.72856    0.96619    0.89955   1.00
H2       0.71822    0.97027    1.09098   1.00
H2       0.70142    0.93256    0.92725   1.00
H2       0.75149    0.94110    1.06494   1.00
H2       0.74359    0.95435    0.94745   1.00
H2       0.70602    0.95324    1.04385   1.00
H2       0.81529    0.90328    0.88042   1.00
H2       0.64518    0.89288    1.11383   1.00
H2       0.79305    0.94854    0.87025   1.00
H2       0.65822    0.94206    1.12149   1.00
H2       0.81128    0.93896    0.91739   1.00
H2       0.64242    0.92668    1.07502   1.00
C4       0.74886    0.98025    0.74535   1.00
C4       0.74985    1.02191    0.74415   1.00
C3       0.71366    0.95897    0.75144   1.00
C3       0.71531    1.04504    0.74486   1.00
C3       0.78415    0.95854    0.74036   1.00
C3       0.78653    1.04170    0.74212   1.00
C2       0.74651    0.89595    0.74585   1.00
C2       0.75189    1.10622    0.74368   1.00
C3       0.71241    0.91811    0.75151   1.00
C3       0.71622    1.08591    0.74483   1.00
C3       0.78159    0.91696    0.74040   1.00
C3       0.78621    1.08336    0.74236   1.00
H1       0.68767    0.97237    0.75646   1.00
H1       0.68816    1.03306    0.74503   1.00
C5       0.82073    0.97835    0.73574   1.00
C5       0.82222    1.01998    0.73968   1.00
H1       0.68607    0.90451    0.75590   1.00
H1       0.69028    1.10091    0.74553   1.00
H1       0.80601    0.90052    0.73668   1.00
H1       0.81171    1.09848    0.74121   1.00
C6       0.85714    0.95515    0.72635   1.00
C6       0.86093    1.04119    0.74174   1.00
H2       0.85020    0.93345    0.70417   1.00
H2       0.85955    1.06310    0.76474   1.00
H2       0.87881    0.97286    0.71142   1.00
H2       0.88411    1.02228    0.75230   1.00
C6       0.87637    0.93606    0.76321   1.00
C6       0.87365    1.05942    0.70176   1.00
H2       0.85374    0.92292    0.78146   1.00
H2       0.84865    1.07383    0.68816   1.00
C6       0.90874    0.90459    0.75624   1.00
C6       0.90837    1.08911    0.70219   1.00
H2       0.88884    0.95949    0.78088   1.00
H2       0.88123    1.03546    0.68214   1.00
C6       0.89194    0.86735    0.73673   1.00
C6       0.89764    1.12708    0.72439   1.00
C6       0.94253    0.92074    0.73092   1.00
C6       0.94552    1.07107    0.72059   1.00
C6       0.92592    0.89245    0.79637   1.00
C6       0.91809    1.10054    0.65943   1.00
H2       0.86758    0.85558    0.75358   1.00
H2       0.87114    1.14020    0.71250   1.00
H2       0.88149    0.87330    0.70732   1.00
H2       0.89277    1.12154    0.75529   1.00
H2       0.91410    0.84459    0.73447   1.00
H2       0.92098    1.14863    0.72221   1.00
H2       0.96619    0.89955    0.72856   1.00
H2       0.97027    1.09098    0.71822   1.00
H2       0.93256    0.92725    0.70142   1.00
H2       0.94110    1.06494    0.75149   1.00
H2       0.95435    0.94745    0.74359   1.00
H2       0.95324    1.04385    0.70602   1.00
H2       0.90328    0.88042    0.81529   1.00
H2       0.89288    1.11383    0.64518   1.00
H2       0.94854    0.87025    0.79305   1.00
H2       0.94206    1.12149    0.65822   1.00
H2       0.93896    0.91739    0.81128   1.00
H2       0.92668    1.07502    0.64242   1.00
C4       0.51975    0.74535    0.75114   1.00
C4       0.47809    0.74415    0.75015   1.00
C3       0.54103    0.75144    0.78634   1.00
C3       0.45496    0.74486    0.78469   1.00
C3       0.54146    0.74036    0.71585   1.00
C3       0.45830    0.74212    0.71347   1.00
C2       0.60405    0.74585    0.75349   1.00
C2       0.39378    0.74368    0.74811   1.00
C3       0.58189    0.75151    0.78759   1.00
C3       0.41409    0.74483    0.78378   1.00
C3       0.58304    0.74040    0.71841   1.00
C3       0.41664    0.74236    0.71379   1.00
H1       0.52763    0.75646    0.81233   1.00
H1       0.46694    0.74503    0.81184   1.00
C5       0.52165    0.73574    0.67927   1.00
C5       0.48002    0.73968    0.67778   1.00
H1       0.59549    0.75590    0.81393   1.00
H1       0.39909    0.74553    0.80972   1.00
H1       0.59948    0.73668    0.69399   1.00
H1       0.40152    0.74121    0.68829   1.00
C6       0.54485    0.72635    0.64286   1.00
C6       0.45881    0.74174    0.63907   1.00
H2       0.56655    0.70417    0.64980   1.00
H2       0.43690    0.76474    0.64045   1.00
H2       0.52714    0.71142    0.62119   1.00
H2       0.47772    0.75230    0.61589   1.00
C6       0.56394    0.76321    0.62363   1.00
C6       0.44058    0.70176    0.62635   1.00
H2       0.57708    0.78146    0.64626   1.00
H2       0.42617    0.68816    0.65135   1.00
C6       0.59541    0.75624    0.59126   1.00
C6       0.41089    0.70219    0.59163   1.00
H2       0.54051    0.78088    0.61116   1.00
H2       0.46454    0.68214    0.61877   1.00
C6       0.63265    0.73673    0.60806   1.00
C6       0.37292    0.72439    0.60236   1.00
C6       0.57926    0.73092    0.55747   1.00
C6       0.42893    0.72059    0.55448   1.00
C6       0.60755    0.79637    0.57408   1.00
C6       0.39946    0.65943    0.58191   1.00
H2       0.64442    0.75358    0.63242   1.00
H2       0.35980    0.71250    0.62886   1.00
H2       0.62670    0.70732    0.61851   1.00
H2       0.37846    0.75529    0.60723   1.00
H2       0.65541    0.73447    0.58590   1.00
H2       0.35137    0.72221    0.57902   1.00
H2       0.60045    0.72856    0.53381   1.00
H2       0.40902    0.71822    0.52973   1.00
H2       0.57275    0.70142    0.56744   1.00
H2       0.43506    0.75149    0.55890   1.00
H2       0.55255    0.74359    0.54565   1.00
H2       0.45615    0.70602    0.54676   1.00
H2       0.61958    0.81529    0.59672   1.00
H2       0.38617    0.64518    0.60712   1.00
H2       0.62975    0.79305    0.55146   1.00
H2       0.37851    0.65822    0.55794   1.00
H2       0.58261    0.81128    0.56104   1.00
H2       0.42498    0.64242    0.57332   1.00
C4       0.98025    0.74535    0.74886   1.00
C4       1.02191    0.74415    0.74985   1.00
C3       0.95897    0.75144    0.71366   1.00
C3       1.04504    0.74486    0.71531   1.00
C3       0.95854    0.74036    0.78415   1.00
C3       1.04170    0.74212    0.78653   1.00
C2       0.89595    0.74585    0.74651   1.00
C2       1.10622    0.74368    0.75189   1.00
C3       0.91811    0.75151    0.71241   1.00
C3       1.08591    0.74483    0.71622   1.00
C3       0.91696    0.74040    0.78159   1.00
C3       1.08336    0.74236    0.78621   1.00
H1       0.97237    0.75646    0.68767   1.00
H1       1.03306    0.74503    0.68816   1.00
C5       0.97835    0.73574    0.82073   1.00
C5       1.01998    0.73968    0.82222   1.00
H1       0.90451    0.75590    0.68607   1.00
H1       1.10091    0.74553    0.69028   1.00
H1       0.90052    0.73668    0.80601   1.00
H1       1.09848    0.74121    0.81171   1.00
C6       0.95515    0.72635    0.85714   1.00
C6       1.04119    0.74174    0.86093   1.00
H2       0.93345    0.70417    0.85020   1.00
H2       1.06310    0.76474    0.85955   1.00
H2       0.97286    0.71142    0.87881   1.00
H2       1.02228    0.75230    0.88411   1.00
C6       0.93606    0.76321    0.87637   1.00
C6       1.05942    0.70176    0.87365   1.00
H2       0.92292    0.78146    0.85374   1.00
H2       1.07383    0.68816    0.84865   1.00
C6       0.90459    0.75624    0.90874   1.00
C6       1.08911    0.70219    0.90837   1.00
H2       0.95949    0.78088    0.88884   1.00
H2       1.03546    0.68214    0.88123   1.00
C6       0.86735    0.73673    0.89194   1.00
C6       1.12708    0.72439    0.89764   1.00
C6       0.92074    0.73092    0.94253   1.00
C6       1.07107    0.72059    0.94552   1.00
C6       0.89245    0.79637    0.92592   1.00
C6       1.10054    0.65943    0.91809   1.00
H2       0.85558    0.75358    0.86758   1.00
H2       1.14020    0.71250    0.87114   1.00
H2       0.87330    0.70732    0.88149   1.00
H2       1.12154    0.75529    0.89277   1.00
H2       0.84459    0.73447    0.91410   1.00
H2       1.14863    0.72221    0.92098   1.00
H2       0.89955    0.72856    0.96619   1.00
H2       1.09098    0.71822    0.97027   1.00
H2       0.92725    0.70142    0.93256   1.00
H2       1.06494    0.75149    0.94110   1.00
H2       0.94745    0.74359    0.95435   1.00
H2       1.04385    0.70602    0.95324   1.00
H2       0.88042    0.81529    0.90328   1.00
H2       1.11383    0.64518    0.89288   1.00
H2       0.87025    0.79305    0.94854   1.00
H2       1.12149    0.65822    0.94206   1.00
H2       0.91739    0.81128    0.93896   1.00
H2       1.07502    0.64242    0.92668   1.00
C4       0.75114    0.51975    0.74535   1.00
C4       0.75015    0.47809    0.74415   1.00
C3       0.78634    0.54103    0.75144   1.00
C3       0.78469    0.45496    0.74486   1.00
C3       0.71585    0.54146    0.74036   1.00
C3       0.71347    0.45830    0.74212   1.00
C2       0.75349    0.60405    0.74585   1.00
C2       0.74811    0.39378    0.74368   1.00
C3       0.78759    0.58189    0.75151   1.00
C3       0.78378    0.41409    0.74483   1.00
C3       0.71841    0.58304    0.74040   1.00
C3       0.71379    0.41664    0.74236   1.00
H1       0.81233    0.52763    0.75646   1.00
H1       0.81184    0.46694    0.74503   1.00
C5       0.67927    0.52165    0.73574   1.00
C5       0.67778    0.48002    0.73968   1.00
H1       0.81393    0.59549    0.75590   1.00
H1       0.80972    0.39909    0.74553   1.00
H1       0.69399    0.59948    0.73668   1.00
H1       0.68829    0.40152    0.74121   1.00
C6       0.64286    0.54485    0.72635   1.00
C6       0.63907    0.45881    0.74174   1.00
H2       0.64980    0.56655    0.70417   1.00
H2       0.64045    0.43690    0.76474   1.00
H2       0.62119    0.52714    0.71142   1.00
H2       0.61589    0.47772    0.75230   1.00
C6       0.62363    0.56394    0.76321   1.00
C6       0.62635    0.44058    0.70176   1.00
H2       0.64626    0.57708    0.78146   1.00
H2       0.65135    0.42617    0.68816   1.00
C6       0.59126    0.59541    0.75624   1.00
C6       0.59163    0.41089    0.70219   1.00
H2       0.61116    0.54051    0.78088   1.00
H2       0.61877    0.46454    0.68214   1.00
C6       0.60806    0.63265    0.73673   1.00
C6       0.60236    0.37292    0.72439   1.00
C6       0.55747    0.57926    0.73092   1.00
C6       0.55448    0.42893    0.72059   1.00
C6       0.57408    0.60755    0.79637   1.00
C6       0.58191    0.39946    0.65943   1.00
H2       0.63242    0.64442    0.75358   1.00
H2       0.62886    0.35980    0.71250   1.00
H2       0.61851    0.62670    0.70732   1.00
H2       0.60723    0.37846    0.75529   1.00
H2       0.58590    0.65541    0.73447   1.00
H2       0.57902    0.35137    0.72221   1.00
H2       0.53381    0.60045    0.72856   1.00
H2       0.52973    0.40902    0.71822   1.00
H2       0.56744    0.57275    0.70142   1.00
H2       0.55890    0.43506    0.75149   1.00
H2       0.54565    0.55255    0.74359   1.00
H2       0.54676    0.45615    0.70602   1.00
H2       0.59672    0.61958    0.81529   1.00
H2       0.60712    0.38617    0.64518   1.00
H2       0.55146    0.62975    0.79305   1.00
H2       0.55794    0.37851    0.65822   1.00
H2       0.56104    0.58261    0.81128   1.00
H2       0.57332    0.42498    0.64242   1.00
C4       0.74535    0.75114    0.51975   1.00
C4       0.74415    0.75015    0.47809   1.00
C3       0.75144    0.78634    0.54103   1.00
C3       0.74486    0.78469    0.45496   1.00
C3       0.74036    0.71585    0.54146   1.00
C3       0.74212    0.71347    0.45830   1.00
C2       0.74585    0.75349    0.60405   1.00
C2       0.74368    0.74811    0.39378   1.00
C3       0.75151    0.78759    0.58189   1.00
C3       0.74483    0.78378    0.41409   1.00
C3       0.74040    0.71841    0.58304   1.00
C3       0.74236    0.71379    0.41664   1.00
H1       0.75646    0.81233    0.52763   1.00
H1       0.74503    0.81184    0.46694   1.00
C5       0.73574    0.67927    0.52165   1.00
C5       0.73968    0.67778    0.48002   1.00
H1       0.75590    0.81393    0.59549   1.00
H1       0.74553    0.80972    0.39909   1.00
H1       0.73668    0.69399    0.59948   1.00
H1       0.74121    0.68829    0.40152   1.00
C6       0.72635    0.64286    0.54485   1.00
C6       0.74174    0.63907    0.45881   1.00
H2       0.70417    0.64980    0.56655   1.00
H2       0.76474    0.64045    0.43690   1.00
H2       0.71142    0.62119    0.52714   1.00
H2       0.75230    0.61589    0.47772   1.00
C6       0.76321    0.62363    0.56394   1.00
C6       0.70176    0.62635    0.44058   1.00
H2       0.78146    0.64626    0.57708   1.00
H2       0.68816    0.65135    0.42617   1.00
C6       0.75624    0.59126    0.59541   1.00
C6       0.70219    0.59163    0.41089   1.00
H2       0.78088    0.61116    0.54051   1.00
H2       0.68214    0.61877    0.46454   1.00
C6       0.73673    0.60806    0.63265   1.00
C6       0.72439    0.60236    0.37292   1.00
C6       0.73092    0.55747    0.57926   1.00
C6       0.72059    0.55448    0.42893   1.00
C6       0.79637    0.57408    0.60755   1.00
C6       0.65943    0.58191    0.39946   1.00
H2       0.75358    0.63242    0.64442   1.00
H2       0.71250    0.62886    0.35980   1.00
H2       0.70732    0.61851    0.62670   1.00
H2       0.75529    0.60723    0.37846   1.00
H2       0.73447    0.58590    0.65541   1.00
H2       0.72221    0.57902    0.35137   1.00
H2       0.72856    0.53381    0.60045   1.00
H2       0.71822    0.52973    0.40902   1.00
H2       0.70142    0.56744    0.57275   1.00
H2       0.75149    0.55890    0.43506   1.00
H2       0.74359    0.54565    0.55255   1.00
H2       0.70602    0.54676    0.45615   1.00
H2       0.81529    0.59672    0.61958   1.00
H2       0.64518    0.60712    0.38617   1.00
H2       0.79305    0.55146    0.62975   1.00
H2       0.65822    0.55794    0.37851   1.00
H2       0.81128    0.56104    0.58261   1.00
H2       0.64242    0.57332    0.42498   1.00
C4       0.24535    0.24886    0.98025   1.00
C4       0.24415    0.24985    1.02191   1.00
C3       0.25144    0.21366    0.95897   1.00
C3       0.24486    0.21531    1.04504   1.00
C3       0.24036    0.28415    0.95854   1.00
C3       0.24212    0.28653    1.04170   1.00
C2       0.24585    0.24651    0.89595   1.00
C2       0.24368    0.25189    1.10622   1.00
C3       0.25151    0.21241    0.91811   1.00
C3       0.24483    0.21622    1.08591   1.00
C3       0.24040    0.28159    0.91696   1.00
C3       0.24236    0.28621    1.08336   1.00
H1       0.25646    0.18767    0.97237   1.00
H1       0.24503    0.18816    1.03306   1.00
C5       0.23574    0.32073    0.97835   1.00
C5       0.23968    0.32222    1.01998   1.00
H1       0.25590    0.18607    0.90451   1.00
H1       0.24553    0.19028    1.10091   1.00
H1       0.23668    0.30601    0.90052   1.00
H1       0.24121    0.31171    1.09848   1.00
C6       0.22635    0.35714    0.95515   1.00
C6       0.24174    0.36093    1.04119   1.00
H2       0.20417    0.35020    0.93345   1.00
H2       0.26474    0.35955    1.06310   1.00
H2       0.21142    0.37881    0.97286   1.00
H2       0.25230    0.38411    1.02228   1.00
C6       0.26321    0.37637    0.93606   1.00
C6       0.20176    0.37365    1.05942   1.00
H2       0.28146    0.35374    0.92292   1.00
H2       0.18816    0.34865    1.07383   1.00
C6       0.25624    0.40874    0.90459   1.00
C6       0.20219    0.40837    1.08911   1.00
H2       0.28088    0.38884    0.95949   1.00
H2       0.18214    0.38123    1.03546   1.00
C6       0.23673    0.39194    0.86735   1.00
C6       0.22439    0.39764    1.12708   1.00
C6       0.23092    0.44253    0.92074   1.00
C6       0.22059    0.44552    1.07107   1.00
C6       0.29637    0.42592    0.89245   1.00
C6       0.15943    0.41809    1.10054   1.00
H2       0.25358    0.36758    0.85558   1.00
H2       0.21250    0.37114    1.14020   1.00
H2       0.20732    0.38149    0.87330   1.00
H2       0.25529    0.39277    1.12154   1.00
H2       0.23447    0.41410    0.84459   1.00
H2       0.22221    0.42098    1.14863   1.00
H2       0.22856    0.46619    0.89955   1.00
H2       0.21822    0.47027    1.09098   1.00
H2       0.20142    0.43256    0.92725   1.00
H2       0.25149    0.44110    1.06494   1.00
H2       0.24359    0.45435    0.94745   1.00
H2       0.20602    0.45324    1.04385   1.00
H2       0.31529    0.40328    0.88042   1.00
H2       0.14518    0.39288    1.11383   1.00
H2       0.29305    0.44854    0.87025   1.00
H2       0.15822    0.44206    1.12149   1.00
H2       0.31128    0.43896    0.91739   1.00
H2       0.14242    0.42668    1.07502   1.00
C4       0.24886    0.48025    0.74535   1.00
C4       0.24985    0.52191    0.74415   1.00
C3       0.21366    0.45897    0.75144   1.00
C3       0.21531    0.54504    0.74486   1.00
C3       0.28415    0.45854    0.74036   1.00
C3       0.28653    0.54170    0.74212   1.00
C2       0.24651    0.39595    0.74585   1.00
C2       0.25189    0.60622    0.74368   1.00
C3       0.21241    0.41811    0.75151   1.00
C3       0.21622    0.58591    0.74483   1.00
C3       0.28159    0.41696    0.74040   1.00
C3       0.28621    0.58336    0.74236   1.00
H1       0.18767    0.47237    0.75646   1.00
H1       0.18816    0.53306    0.74503   1.00
C5       0.32073    0.47835    0.73574   1.00
C5       0.32222    0.51998    0.73968   1.00
H1       0.18607    0.40451    0.75590   1.00
H1       0.19028    0.60091    0.74553   1.00
H1       0.30601    0.40052    0.73668   1.00
H1       0.31171    0.59848    0.74121   1.00
C6       0.35714    0.45515    0.72635   1.00
C6       0.36093    0.54119    0.74174   1.00
H2       0.35020    0.43345    0.70417   1.00
H2       0.35955    0.56310    0.76474   1.00
H2       0.37881    0.47286    0.71142   1.00
H2       0.38411    0.52228    0.75230   1.00
C6       0.37637    0.43606    0.76321   1.00
C6       0.37365    0.55942    0.70176   1.00
H2       0.35374    0.42292    0.78146   1.00
H2       0.34865    0.57383    0.68816   1.00
C6       0.40874    0.40459    0.75624   1.00
C6       0.40837    0.58911    0.70219   1.00
H2       0.38884    0.45949    0.78088   1.00
H2       0.38123    0.53546    0.68214   1.00
C6       0.39194    0.36735    0.73673   1.00
C6       0.39764    0.62708    0.72439   1.00
C6       0.44253    0.42074    0.73092   1.00
C6       0.44552    0.57107    0.72059   1.00
C6       0.42592    0.39245    0.79637   1.00
C6       0.41809    0.60054    0.65943   1.00
H2       0.36758    0.35558    0.75358   1.00
H2       0.37114    0.64020    0.71250   1.00
H2       0.38149    0.37330    0.70732   1.00
H2       0.39277    0.62154    0.75529   1.00
H2       0.41410    0.34459    0.73447   1.00
H2       0.42098    0.64863    0.72221   1.00
H2       0.46619    0.39955    0.72856   1.00
H2       0.47027    0.59098    0.71822   1.00
H2       0.43256    0.42725    0.70142   1.00
H2       0.44110    0.56494    0.75149   1.00
H2       0.45435    0.44745    0.74359   1.00
H2       0.45324    0.54385    0.70602   1.00
H2       0.40328    0.38042    0.81529   1.00
H2       0.39288    0.61383    0.64518   1.00
H2       0.44854    0.37025    0.79305   1.00
H2       0.44206    0.62149    0.65822   1.00
H2       0.43896    0.41739    0.81128   1.00
H2       0.42668    0.57502    0.64242   1.00
C4       0.01975    0.24535    0.75114   1.00
C4       -0.02191   0.24415    0.75015   1.00
C3       0.04103    0.25144    0.78634   1.00
C3       -0.04504   0.24486    0.78469   1.00
C3       0.04146    0.24036    0.71585   1.00
C3       -0.04170   0.24212    0.71347   1.00
C2       0.10405    0.24585    0.75349   1.00
C2       -0.10622   0.24368    0.74811   1.00
C3       0.08189    0.25151    0.78759   1.00
C3       -0.08591   0.24483    0.78378   1.00
C3       0.08304    0.24040    0.71841   1.00
C3       -0.08336   0.24236    0.71379   1.00
H1       0.02763    0.25646    0.81233   1.00
H1       -0.03306   0.24503    0.81184   1.00
C5       0.02165    0.23574    0.67927   1.00
C5       -0.01998   0.23968    0.67778   1.00
H1       0.09549    0.25590    0.81393   1.00
H1       -0.10091   0.24553    0.80972   1.00
H1       0.09948    0.23668    0.69399   1.00
H1       -0.09848   0.24121    0.68829   1.00
C6       0.04485    0.22635    0.64286   1.00
C6       -0.04119   0.24174    0.63907   1.00
H2       0.06655    0.20417    0.64980   1.00
H2       -0.06310   0.26474    0.64045   1.00
H2       0.02714    0.21142    0.62119   1.00
H2       -0.02228   0.25230    0.61589   1.00
C6       0.06394    0.26321    0.62363   1.00
C6       -0.05942   0.20176    0.62635   1.00
H2       0.07708    0.28146    0.64626   1.00
H2       -0.07383   0.18816    0.65135   1.00
C6       0.09541    0.25624    0.59126   1.00
C6       -0.08911   0.20219    0.59163   1.00
H2       0.04051    0.28088    0.61116   1.00
H2       -0.03546   0.18214    0.61877   1.00
C6       0.13265    0.23673    0.60806   1.00
C6       -0.12708   0.22439    0.60236   1.00
C6       0.07926    0.23092    0.55747   1.00
C6       -0.07107   0.22059    0.55448   1.00
C6       0.10755    0.29637    0.57408   1.00
C6       -0.10054   0.15943    0.58191   1.00
H2       0.14442    0.25358    0.63242   1.00
H2       -0.14020   0.21250    0.62886   1.00
H2       0.12670    0.20732    0.61851   1.00
H2       -0.12154   0.25529    0.60723   1.00
H2       0.15541    0.23447    0.58590   1.00
H2       -0.14863   0.22221    0.57902   1.00
H2       0.10045    0.22856    0.53381   1.00
H2       -0.09098   0.21822    0.52973   1.00
H2       0.07275    0.20142    0.56744   1.00
H2       -0.06494   0.25149    0.55890   1.00
H2       0.05255    0.24359    0.54565   1.00
H2       -0.04385   0.20602    0.54676   1.00
H2       0.11958    0.31529    0.59672   1.00
H2       -0.11383   0.14518    0.60712   1.00
H2       0.12975    0.29305    0.55146   1.00
H2       -0.12149   0.15822    0.55794   1.00
H2       0.08261    0.31128    0.56104   1.00
H2       -0.07502   0.14242    0.57332   1.00
C4       0.48025    0.24535    0.74886   1.00
C4       0.52191    0.24415    0.74985   1.00
C3       0.45897    0.25144    0.71366   1.00
C3       0.54504    0.24486    0.71531   1.00
C3       0.45854    0.24036    0.78415   1.00
C3       0.54170    0.24212    0.78653   1.00
C2       0.39595    0.24585    0.74651   1.00
C2       0.60622    0.24368    0.75189   1.00
C3       0.41811    0.25151    0.71241   1.00
C3       0.58591    0.24483    0.71622   1.00
C3       0.41696    0.24040    0.78159   1.00
C3       0.58336    0.24236    0.78621   1.00
H1       0.47237    0.25646    0.68767   1.00
H1       0.53306    0.24503    0.68816   1.00
C5       0.47835    0.23574    0.82073   1.00
C5       0.51998    0.23968    0.82222   1.00
H1       0.40451    0.25590    0.68607   1.00
H1       0.60091    0.24553    0.69028   1.00
H1       0.40052    0.23668    0.80601   1.00
H1       0.59848    0.24121    0.81171   1.00
C6       0.45515    0.22635    0.85714   1.00
C6       0.54119    0.24174    0.86093   1.00
H2       0.43345    0.20417    0.85020   1.00
H2       0.56310    0.26474    0.85955   1.00
H2       0.47286    0.21142    0.87881   1.00
H2       0.52228    0.25230    0.88411   1.00
C6       0.43606    0.26321    0.87637   1.00
C6       0.55942    0.20176    0.87365   1.00
H2       0.42292    0.28146    0.85374   1.00
H2       0.57383    0.18816    0.84865   1.00
C6       0.40459    0.25624    0.90874   1.00
C6       0.58911    0.20219    0.90837   1.00
H2       0.45949    0.28088    0.88884   1.00
H2       0.53546    0.18214    0.88123   1.00
C6       0.36735    0.23673    0.89194   1.00
C6       0.62708    0.22439    0.89764   1.00
C6       0.42074    0.23092    0.94253   1.00
C6       0.57107    0.22059    0.94552   1.00
C6       0.39245    0.29637    0.92592   1.00
C6       0.60054    0.15943    0.91809   1.00
H2       0.35558    0.25358    0.86758   1.00
H2       0.64020    0.21250    0.87114   1.00
H2       0.37330    0.20732    0.88149   1.00
H2       0.62154    0.25529    0.89277   1.00
H2       0.34459    0.23447    0.91410   1.00
H2       0.64863    0.22221    0.92098   1.00
H2       0.39955    0.22856    0.96619   1.00
H2       0.59098    0.21822    0.97027   1.00
H2       0.42725    0.20142    0.93256   1.00
H2       0.56494    0.25149    0.94110   1.00
H2       0.44745    0.24359    0.95435   1.00
H2       0.54385    0.20602    0.95324   1.00
H2       0.38042    0.31529    0.90328   1.00
H2       0.61383    0.14518    0.89288   1.00
H2       0.37025    0.29305    0.94854   1.00
H2       0.62149    0.15822    0.94206   1.00
H2       0.41739    0.31128    0.93896   1.00
H2       0.57502    0.14242    0.92668   1.00
C4       0.25114    0.01975    0.74535   1.00
C4       0.25015    -0.02191   0.74415   1.00
C3       0.28634    0.04103    0.75144   1.00
C3       0.28469    -0.04504   0.74486   1.00
C3       0.21585    0.04146    0.74036   1.00
C3       0.21347    -0.04170   0.74212   1.00
C2       0.25349    0.10405    0.74585   1.00
C2       0.24811    -0.10622   0.74368   1.00
C3       0.28759    0.08189    0.75151   1.00
C3       0.28378    -0.08591   0.74483   1.00
C3       0.21841    0.08304    0.74040   1.00
C3       0.21379    -0.08336   0.74236   1.00
H1       0.31233    0.02763    0.75646   1.00
H1       0.31184    -0.03306   0.74503   1.00
C5       0.17927    0.02165    0.73574   1.00
C5       0.17778    -0.01998   0.73968   1.00
H1       0.31393    0.09549    0.75590   1.00
H1       0.30972    -0.10091   0.74553   1.00
H1       0.19399    0.09948    0.73668   1.00
H1       0.18829    -0.09848   0.74121   1.00
C6       0.14286    0.04485    0.72635   1.00
C6       0.13907    -0.04119   0.74174   1.00
H2       0.14980    0.06655    0.70417   1.00
H2       0.14045    -0.06310   0.76474   1.00
H2       0.12119    0.02714    0.71142   1.00
H2       0.11589    -0.02228   0.75230   1.00
C6       0.12363    0.06394    0.76321   1.00
C6       0.12635    -0.05942   0.70176   1.00
H2       0.14626    0.07708    0.78146   1.00
H2       0.15135    -0.07383   0.68816   1.00
C6       0.09126    0.09541    0.75624   1.00
C6       0.09163    -0.08911   0.70219   1.00
H2       0.11116    0.04051    0.78088   1.00
H2       0.11877    -0.03546   0.68214   1.00
C6       0.10806    0.13265    0.73673   1.00
C6       0.10236    -0.12708   0.72439   1.00
C6       0.05747    0.07926    0.73092   1.00
C6       0.05448    -0.07107   0.72059   1.00
C6       0.07408    0.10755    0.79637   1.00
C6       0.08191    -0.10054   0.65943   1.00
H2       0.13242    0.14442    0.75358   1.00
H2       0.12886    -0.14020   0.71250   1.00
H2       0.11851    0.12670    0.70732   1.00
H2       0.10723    -0.12154   0.75529   1.00
H2       0.08590    0.15541    0.73447   1.00
H2       0.07902    -0.14863   0.72221   1.00
H2       0.03381    0.10045    0.72856   1.00
H2       0.02973    -0.09098   0.71822   1.00
H2       0.06744    0.07275    0.70142   1.00
H2       0.05890    -0.06494   0.75149   1.00
H2       0.04565    0.05255    0.74359   1.00
H2       0.04676    -0.04385   0.70602   1.00
H2       0.09672    0.11958    0.81529   1.00
H2       0.10712    -0.11383   0.64518   1.00
H2       0.05146    0.12975    0.79305   1.00
H2       0.05794    -0.12149   0.65822   1.00
H2       0.06104    0.08261    0.81128   1.00
H2       0.07332    -0.07502   0.64242   1.00
C4       0.24535    0.25114    0.51975   1.00
C4       0.24415    0.25015    0.47809   1.00
C3       0.25144    0.28634    0.54103   1.00
C3       0.24486    0.28469    0.45496   1.00
C3       0.24036    0.21585    0.54146   1.00
C3       0.24212    0.21347    0.45830   1.00
C2       0.24585    0.25349    0.60405   1.00
C2       0.24368    0.24811    0.39378   1.00
C3       0.25151    0.28759    0.58189   1.00
C3       0.24483    0.28378    0.41409   1.00
C3       0.24040    0.21841    0.58304   1.00
C3       0.24236    0.21379    0.41664   1.00
H1       0.25646    0.31233    0.52763   1.00
H1       0.24503    0.31184    0.46694   1.00
C5       0.23574    0.17927    0.52165   1.00
C5       0.23968    0.17778    0.48002   1.00
H1       0.25590    0.31393    0.59549   1.00
H1       0.24553    0.30972    0.39909   1.00
H1       0.23668    0.19399    0.59948   1.00
H1       0.24121    0.18829    0.40152   1.00
C6       0.22635    0.14286    0.54485   1.00
C6       0.24174    0.13907    0.45881   1.00
H2       0.20417    0.14980    0.56655   1.00
H2       0.26474    0.14045    0.43690   1.00
H2       0.21142    0.12119    0.52714   1.00
H2       0.25230    0.11589    0.47772   1.00
C6       0.26321    0.12363    0.56394   1.00
C6       0.20176    0.12635    0.44058   1.00
H2       0.28146    0.14626    0.57708   1.00
H2       0.18816    0.15135    0.42617   1.00
C6       0.25624    0.09126    0.59541   1.00
C6       0.20219    0.09163    0.41089   1.00
H2       0.28088    0.11116    0.54051   1.00
H2       0.18214    0.11877    0.46454   1.00
C6       0.23673    0.10806    0.63265   1.00
C6       0.22439    0.10236    0.37292   1.00
C6       0.23092    0.05747    0.57926   1.00
C6       0.22059    0.05448    0.42893   1.00
C6       0.29637    0.07408    0.60755   1.00
C6       0.15943    0.08191    0.39946   1.00
H2       0.25358    0.13242    0.64442   1.00
H2       0.21250    0.12886    0.35980   1.00
H2       0.20732    0.11851    0.62670   1.00
H2       0.25529    0.10723    0.37846   1.00
H2       0.23447    0.08590    0.65541   1.00
H2       0.22221    0.07902    0.35137   1.00
H2       0.22856    0.03381    0.60045   1.00
H2       0.21822    0.02973    0.40902   1.00
H2       0.20142    0.06744    0.57275   1.00
H2       0.25149    0.05890    0.43506   1.00
H2       0.24359    0.04565    0.55255   1.00
H2       0.20602    0.04676    0.45615   1.00
H2       0.31529    0.09672    0.61958   1.00
H2       0.14518    0.10712    0.38617   1.00
H2       0.29305    0.05146    0.62975   1.00
H2       0.15822    0.05794    0.37851   1.00
H2       0.31128    0.06104    0.58261   1.00
H2       0.14242    0.07332    0.42498   1.00
C4       0.24535    0.74886    0.48025   1.00
C4       0.24415    0.74985    0.52191   1.00
C3       0.25144    0.71366    0.45897   1.00
C3       0.24486    0.71531    0.54504   1.00
C3       0.24036    0.78415    0.45854   1.00
C3       0.24212    0.78653    0.54170   1.00
C2       0.24585    0.74651    0.39595   1.00
C2       0.24368    0.75189    0.60622   1.00
C3       0.25151    0.71241    0.41811   1.00
C3       0.24483    0.71622    0.58591   1.00
C3       0.24040    0.78159    0.41696   1.00
C3       0.24236    0.78621    0.58336   1.00
H1       0.25646    0.68767    0.47237   1.00
H1       0.24503    0.68816    0.53306   1.00
C5       0.23574    0.82073    0.47835   1.00
C5       0.23968    0.82222    0.51998   1.00
H1       0.25590    0.68607    0.40451   1.00
H1       0.24553    0.69028    0.60091   1.00
H1       0.23668    0.80601    0.40052   1.00
H1       0.24121    0.81171    0.59848   1.00
C6       0.22635    0.85714    0.45515   1.00
C6       0.24174    0.86093    0.54119   1.00
H2       0.20417    0.85020    0.43345   1.00
H2       0.26474    0.85955    0.56310   1.00
H2       0.21142    0.87881    0.47286   1.00
H2       0.25230    0.88411    0.52228   1.00
C6       0.26321    0.87637    0.43606   1.00
C6       0.20176    0.87365    0.55942   1.00
H2       0.28146    0.85374    0.42292   1.00
H2       0.18816    0.84865    0.57383   1.00
C6       0.25624    0.90874    0.40459   1.00
C6       0.20219    0.90837    0.58911   1.00
H2       0.28088    0.88884    0.45949   1.00
H2       0.18214    0.88123    0.53546   1.00
C6       0.23673    0.89194    0.36735   1.00
C6       0.22439    0.89764    0.62708   1.00
C6       0.23092    0.94253    0.42074   1.00
C6       0.22059    0.94552    0.57107   1.00
C6       0.29637    0.92592    0.39245   1.00
C6       0.15943    0.91809    0.60054   1.00
H2       0.25358    0.86758    0.35558   1.00
H2       0.21250    0.87114    0.64020   1.00
H2       0.20732    0.88149    0.37330   1.00
H2       0.25529    0.89277    0.62154   1.00
H2       0.23447    0.91410    0.34459   1.00
H2       0.22221    0.92098    0.64863   1.00
H2       0.22856    0.96619    0.39955   1.00
H2       0.21822    0.97027    0.59098   1.00
H2       0.20142    0.93256    0.42725   1.00
H2       0.25149    0.94110    0.56494   1.00
H2       0.24359    0.95435    0.44745   1.00
H2       0.20602    0.95324    0.54385   1.00
H2       0.31529    0.90328    0.38042   1.00
H2       0.14518    0.89288    0.61383   1.00
H2       0.29305    0.94854    0.37025   1.00
H2       0.15822    0.94206    0.62149   1.00
H2       0.31128    0.93896    0.41739   1.00
H2       0.14242    0.92668    0.57502   1.00
C4       0.24886    0.98025    0.24535   1.00
C4       0.24985    1.02191    0.24415   1.00
C3       0.21366    0.95897    0.25144   1.00
C3       0.21531    1.04504    0.24486   1.00
C3       0.28415    0.95854    0.24036   1.00
C3       0.28653    1.04170    0.24212   1.00
C2       0.24651    0.89595    0.24585   1.00
C2       0.25189    1.10622    0.24368   1.00
C3       0.21241    0.91811    0.25151   1.00
C3       0.21622    1.08591    0.24483   1.00
C3       0.28159    0.91696    0.24040   1.00
C3       0.28621    1.08336    0.24236   1.00
H1       0.18767    0.97237    0.25646   1.00
H1       0.18816    1.03306    0.24503   1.00
C5       0.32073    0.97835    0.23574   1.00
C5       0.32222    1.01998    0.23968   1.00
H1       0.18607    0.90451    0.25590   1.00
H1       0.19028    1.10091    0.24553   1.00
H1       0.30601    0.90052    0.23668   1.00
H1       0.31171    1.09848    0.24121   1.00
C6       0.35714    0.95515    0.22635   1.00
C6       0.36093    1.04119    0.24174   1.00
H2       0.35020    0.93345    0.20417   1.00
H2       0.35955    1.06310    0.26474   1.00
H2       0.37881    0.97286    0.21142   1.00
H2       0.38411    1.02228    0.25230   1.00
C6       0.37637    0.93606    0.26321   1.00
C6       0.37365    1.05942    0.20176   1.00
H2       0.35374    0.92292    0.28146   1.00
H2       0.34865    1.07383    0.18816   1.00
C6       0.40874    0.90459    0.25624   1.00
C6       0.40837    1.08911    0.20219   1.00
H2       0.38884    0.95949    0.28088   1.00
H2       0.38123    1.03546    0.18214   1.00
C6       0.39194    0.86735    0.23673   1.00
C6       0.39764    1.12708    0.22439   1.00
C6       0.44253    0.92074    0.23092   1.00
C6       0.44552    1.07107    0.22059   1.00
C6       0.42592    0.89245    0.29637   1.00
C6       0.41809    1.10054    0.15943   1.00
H2       0.36758    0.85558    0.25358   1.00
H2       0.37114    1.14020    0.21250   1.00
H2       0.38149    0.87330    0.20732   1.00
H2       0.39277    1.12154    0.25529   1.00
H2       0.41410    0.84459    0.23447   1.00
H2       0.42098    1.14863    0.22221   1.00
H2       0.46619    0.89955    0.22856   1.00
H2       0.47027    1.09098    0.21822   1.00
H2       0.43256    0.92725    0.20142   1.00
H2       0.44110    1.06494    0.25149   1.00
H2       0.45435    0.94745    0.24359   1.00
H2       0.45324    1.04385    0.20602   1.00
H2       0.40328    0.88042    0.31529   1.00
H2       0.39288    1.11383    0.14518   1.00
H2       0.44854    0.87025    0.29305   1.00
H2       0.44206    1.12149    0.15822   1.00
H2       0.43896    0.91739    0.31128   1.00
H2       0.42668    1.07502    0.14242   1.00
C4       0.01975    0.74535    0.25114   1.00
C4       -0.02191   0.74415    0.25015   1.00
C3       0.04103    0.75144    0.28634   1.00
C3       -0.04504   0.74486    0.28469   1.00
C3       0.04146    0.74036    0.21585   1.00
C3       -0.04170   0.74212    0.21347   1.00
C2       0.10405    0.74585    0.25349   1.00
C2       -0.10622   0.74368    0.24811   1.00
C3       0.08189    0.75151    0.28759   1.00
C3       -0.08591   0.74483    0.28378   1.00
C3       0.08304    0.74040    0.21841   1.00
C3       -0.08336   0.74236    0.21379   1.00
H1       0.02763    0.75646    0.31233   1.00
H1       -0.03306   0.74503    0.31184   1.00
C5       0.02165    0.73574    0.17927   1.00
C5       -0.01998   0.73968    0.17778   1.00
H1       0.09549    0.75590    0.31393   1.00
H1       -0.10091   0.74553    0.30972   1.00
H1       0.09948    0.73668    0.19399   1.00
H1       -0.09848   0.74121    0.18829   1.00
C6       0.04485    0.72635    0.14286   1.00
C6       -0.04119   0.74174    0.13907   1.00
H2       0.06655    0.70417    0.14980   1.00
H2       -0.06310   0.76474    0.14045   1.00
H2       0.02714    0.71142    0.12119   1.00
H2       -0.02228   0.75230    0.11589   1.00
C6       0.06394    0.76321    0.12363   1.00
C6       -0.05942   0.70176    0.12635   1.00
H2       0.07708    0.78146    0.14626   1.00
H2       -0.07383   0.68816    0.15135   1.00
C6       0.09541    0.75624    0.09126   1.00
C6       -0.08911   0.70219    0.09163   1.00
H2       0.04051    0.78088    0.11116   1.00
H2       -0.03546   0.68214    0.11877   1.00
C6       0.13265    0.73673    0.10806   1.00
C6       -0.12708   0.72439    0.10236   1.00
C6       0.07926    0.73092    0.05747   1.00
C6       -0.07107   0.72059    0.05448   1.00
C6       0.10755    0.79637    0.07408   1.00
C6       -0.10054   0.65943    0.08191   1.00
H2       0.14442    0.75358    0.13242   1.00
H2       -0.14020   0.71250    0.12886   1.00
H2       0.12670    0.70732    0.11851   1.00
H2       -0.12154   0.75529    0.10723   1.00
H2       0.15541    0.73447    0.08590   1.00
H2       -0.14863   0.72221    0.07902   1.00
H2       0.10045    0.72856    0.03381   1.00
H2       -0.09098   0.71822    0.02973   1.00
H2       0.07275    0.70142    0.06744   1.00
H2       -0.06494   0.75149    0.05890   1.00
H2       0.05255    0.74359    0.04565   1.00
H2       -0.04385   0.70602    0.04676   1.00
H2       0.11958    0.81529    0.09672   1.00
H2       -0.11383   0.64518    0.10712   1.00
H2       0.12975    0.79305    0.05146   1.00
H2       -0.12149   0.65822    0.05794   1.00
H2       0.08261    0.81128    0.06104   1.00
H2       -0.07502   0.64242    0.07332   1.00
C4       0.48025    0.74535    0.24886   1.00
C4       0.52191    0.74415    0.24985   1.00
C3       0.45897    0.75144    0.21366   1.00
C3       0.54504    0.74486    0.21531   1.00
C3       0.45854    0.74036    0.28415   1.00
C3       0.54170    0.74212    0.28653   1.00
C2       0.39595    0.74585    0.24651   1.00
C2       0.60622    0.74368    0.25189   1.00
C3       0.41811    0.75151    0.21241   1.00
C3       0.58591    0.74483    0.21622   1.00
C3       0.41696    0.74040    0.28159   1.00
C3       0.58336    0.74236    0.28621   1.00
H1       0.47237    0.75646    0.18767   1.00
H1       0.53306    0.74503    0.18816   1.00
C5       0.47835    0.73574    0.32073   1.00
C5       0.51998    0.73968    0.32222   1.00
H1       0.40451    0.75590    0.18607   1.00
H1       0.60091    0.74553    0.19028   1.00
H1       0.40052    0.73668    0.30601   1.00
H1       0.59848    0.74121    0.31171   1.00
C6       0.45515    0.72635    0.35714   1.00
C6       0.54119    0.74174    0.36093   1.00
H2       0.43345    0.70417    0.35020   1.00
H2       0.56310    0.76474    0.35955   1.00
H2       0.47286    0.71142    0.37881   1.00
H2       0.52228    0.75230    0.38411   1.00
C6       0.43606    0.76321    0.37637   1.00
C6       0.55942    0.70176    0.37365   1.00
H2       0.42292    0.78146    0.35374   1.00
H2       0.57383    0.68816    0.34865   1.00
C6       0.40459    0.75624    0.40874   1.00
C6       0.58911    0.70219    0.40837   1.00
H2       0.45949    0.78088    0.38884   1.00
H2       0.53546    0.68214    0.38123   1.00
C6       0.36735    0.73673    0.39194   1.00
C6       0.62708    0.72439    0.39764   1.00
C6       0.42074    0.73092    0.44253   1.00
C6       0.57107    0.72059    0.44552   1.00
C6       0.39245    0.79637    0.42592   1.00
C6       0.60054    0.65943    0.41809   1.00
H2       0.35558    0.75358    0.36758   1.00
H2       0.64020    0.71250    0.37114   1.00
H2       0.37330    0.70732    0.38149   1.00
H2       0.62154    0.75529    0.39277   1.00
H2       0.34459    0.73447    0.41410   1.00
H2       0.64863    0.72221    0.42098   1.00
H2       0.39955    0.72856    0.46619   1.00
H2       0.59098    0.71822    0.47027   1.00
H2       0.42725    0.70142    0.43256   1.00
H2       0.56494    0.75149    0.44110   1.00
H2       0.44745    0.74359    0.45435   1.00
H2       0.54385    0.70602    0.45324   1.00
H2       0.38042    0.81529    0.40328   1.00
H2       0.61383    0.64518    0.39288   1.00
H2       0.37025    0.79305    0.44854   1.00
H2       0.62149    0.65822    0.44206   1.00
H2       0.41739    0.81128    0.43896   1.00
H2       0.57502    0.64242    0.42668   1.00
C4       0.25114    0.51975    0.24535   1.00
C4       0.25015    0.47809    0.24415   1.00
C3       0.28634    0.54103    0.25144   1.00
C3       0.28469    0.45496    0.24486   1.00
C3       0.21585    0.54146    0.24036   1.00
C3       0.21347    0.45830    0.24212   1.00
C2       0.25349    0.60405    0.24585   1.00
C2       0.24811    0.39378    0.24368   1.00
C3       0.28759    0.58189    0.25151   1.00
C3       0.28378    0.41409    0.24483   1.00
C3       0.21841    0.58304    0.24040   1.00
C3       0.21379    0.41664    0.24236   1.00
H1       0.31233    0.52763    0.25646   1.00
H1       0.31184    0.46694    0.24503   1.00
C5       0.17927    0.52165    0.23574   1.00
C5       0.17778    0.48002    0.23968   1.00
H1       0.31393    0.59549    0.25590   1.00
H1       0.30972    0.39909    0.24553   1.00
H1       0.19399    0.59948    0.23668   1.00
H1       0.18829    0.40152    0.24121   1.00
C6       0.14286    0.54485    0.22635   1.00
C6       0.13907    0.45881    0.24174   1.00
H2       0.14980    0.56655    0.20417   1.00
H2       0.14045    0.43690    0.26474   1.00
H2       0.12119    0.52714    0.21142   1.00
H2       0.11589    0.47772    0.25230   1.00
C6       0.12363    0.56394    0.26321   1.00
C6       0.12635    0.44058    0.20176   1.00
H2       0.14626    0.57708    0.28146   1.00
H2       0.15135    0.42617    0.18816   1.00
C6       0.09126    0.59541    0.25624   1.00
C6       0.09163    0.41089    0.20219   1.00
H2       0.11116    0.54051    0.28088   1.00
H2       0.11877    0.46454    0.18214   1.00
C6       0.10806    0.63265    0.23673   1.00
C6       0.10236    0.37292    0.22439   1.00
C6       0.05747    0.57926    0.23092   1.00
C6       0.05448    0.42893    0.22059   1.00
C6       0.07408    0.60755    0.29637   1.00
C6       0.08191    0.39946    0.15943   1.00
H2       0.13242    0.64442    0.25358   1.00
H2       0.12886    0.35980    0.21250   1.00
H2       0.11851    0.62670    0.20732   1.00
H2       0.10723    0.37846    0.25529   1.00
H2       0.08590    0.65541    0.23447   1.00
H2       0.07902    0.35137    0.22221   1.00
H2       0.03381    0.60045    0.22856   1.00
H2       0.02973    0.40902    0.21822   1.00
H2       0.06744    0.57275    0.20142   1.00
H2       0.05890    0.43506    0.25149   1.00
H2       0.04565    0.55255    0.24359   1.00
H2       0.04676    0.45615    0.20602   1.00
H2       0.09672    0.61958    0.31529   1.00
H2       0.10712    0.38617    0.14518   1.00
H2       0.05146    0.62975    0.29305   1.00
H2       0.05794    0.37851    0.15822   1.00
H2       0.06104    0.58261    0.31128   1.00
H2       0.07332    0.42498    0.14242   1.00
C4       0.24535    0.75114    0.01975   1.00
C4       0.24415    0.75015    -0.02191   1.00
C3       0.25144    0.78634    0.04103   1.00
C3       0.24486    0.78469    -0.04504   1.00
C3       0.24036    0.71585    0.04146   1.00
C3       0.24212    0.71347    -0.04170   1.00
C2       0.24585    0.75349    0.10405   1.00
C2       0.24368    0.74811    -0.10622   1.00
C3       0.25151    0.78759    0.08189   1.00
C3       0.24483    0.78378    -0.08591   1.00
C3       0.24040    0.71841    0.08304   1.00
C3       0.24236    0.71379    -0.08336   1.00
H1       0.25646    0.81233    0.02763   1.00
H1       0.24503    0.81184    -0.03306   1.00
C5       0.23574    0.67927    0.02165   1.00
C5       0.23968    0.67778    -0.01998   1.00
H1       0.25590    0.81393    0.09549   1.00
H1       0.24553    0.80972    -0.10091   1.00
H1       0.23668    0.69399    0.09948   1.00
H1       0.24121    0.68829    -0.09848   1.00
C6       0.22635    0.64286    0.04485   1.00
C6       0.24174    0.63907    -0.04119   1.00
H2       0.20417    0.64980    0.06655   1.00
H2       0.26474    0.64045    -0.06310   1.00
H2       0.21142    0.62119    0.02714   1.00
H2       0.25230    0.61589    -0.02228   1.00
C6       0.26321    0.62363    0.06394   1.00
C6       0.20176    0.62635    -0.05942   1.00
H2       0.28146    0.64626    0.07708   1.00
H2       0.18816    0.65135    -0.07383   1.00
C6       0.25624    0.59126    0.09541   1.00
C6       0.20219    0.59163    -0.08911   1.00
H2       0.28088    0.61116    0.04051   1.00
H2       0.18214    0.61877    -0.03546   1.00
C6       0.23673    0.60806    0.13265   1.00
C6       0.22439    0.60236    -0.12708   1.00
C6       0.23092    0.55747    0.07926   1.00
C6       0.22059    0.55448    -0.07107   1.00
C6       0.29637    0.57408    0.10755   1.00
C6       0.15943    0.58191    -0.10054   1.00
H2       0.25358    0.63242    0.14442   1.00
H2       0.21250    0.62886    -0.14020   1.00
H2       0.20732    0.61851    0.12670   1.00
H2       0.25529    0.60723    -0.12154   1.00
H2       0.23447    0.58590    0.15541   1.00
H2       0.22221    0.57902    -0.14863   1.00
H2       0.22856    0.53381    0.10045   1.00
H2       0.21822    0.52973    -0.09098   1.00
H2       0.20142    0.56744    0.07275   1.00
H2       0.25149    0.55890    -0.06494   1.00
H2       0.24359    0.54565    0.05255   1.00
H2       0.20602    0.54676    -0.04385   1.00
H2       0.31529    0.59672    0.11958   1.00
H2       0.14518    0.60712    -0.11383   1.00
H2       0.29305    0.55146    0.12975   1.00
H2       0.15822    0.55794    -0.12149   1.00
H2       0.31128    0.56104    0.08261   1.00
H2       0.14242    0.57332    -0.07502   1.00
C4       0.74535    0.24886    0.48025   1.00
C4       0.74415    0.24985    0.52191   1.00
C3       0.75144    0.21366    0.45897   1.00
C3       0.74486    0.21531    0.54504   1.00
C3       0.74036    0.28415    0.45854   1.00
C3       0.74212    0.28653    0.54170   1.00
C2       0.74585    0.24651    0.39595   1.00
C2       0.74368    0.25189    0.60622   1.00
C3       0.75151    0.21241    0.41811   1.00
C3       0.74483    0.21622    0.58591   1.00
C3       0.74040    0.28159    0.41696   1.00
C3       0.74236    0.28621    0.58336   1.00
H1       0.75646    0.18767    0.47237   1.00
H1       0.74503    0.18816    0.53306   1.00
C5       0.73574    0.32073    0.47835   1.00
C5       0.73968    0.32222    0.51998   1.00
H1       0.75590    0.18607    0.40451   1.00
H1       0.74553    0.19028    0.60091   1.00
H1       0.73668    0.30601    0.40052   1.00
H1       0.74121    0.31171    0.59848   1.00
C6       0.72635    0.35714    0.45515   1.00
C6       0.74174    0.36093    0.54119   1.00
H2       0.70417    0.35020    0.43345   1.00
H2       0.76474    0.35955    0.56310   1.00
H2       0.71142    0.37881    0.47286   1.00
H2       0.75230    0.38411    0.52228   1.00
C6       0.76321    0.37637    0.43606   1.00
C6       0.70176    0.37365    0.55942   1.00
H2       0.78146    0.35374    0.42292   1.00
H2       0.68816    0.34865    0.57383   1.00
C6       0.75624    0.40874    0.40459   1.00
C6       0.70219    0.40837    0.58911   1.00
H2       0.78088    0.38884    0.45949   1.00
H2       0.68214    0.38123    0.53546   1.00
C6       0.73673    0.39194    0.36735   1.00
C6       0.72439    0.39764    0.62708   1.00
C6       0.73092    0.44253    0.42074   1.00
C6       0.72059    0.44552    0.57107   1.00
C6       0.79637    0.42592    0.39245   1.00
C6       0.65943    0.41809    0.60054   1.00
H2       0.75358    0.36758    0.35558   1.00
H2       0.71250    0.37114    0.64020   1.00
H2       0.70732    0.38149    0.37330   1.00
H2       0.75529    0.39277    0.62154   1.00
H2       0.73447    0.41410    0.34459   1.00
H2       0.72221    0.42098    0.64863   1.00
H2       0.72856    0.46619    0.39955   1.00
H2       0.71822    0.47027    0.59098   1.00
H2       0.70142    0.43256    0.42725   1.00
H2       0.75149    0.44110    0.56494   1.00
H2       0.74359    0.45435    0.44745   1.00
H2       0.70602    0.45324    0.54385   1.00
H2       0.81529    0.40328    0.38042   1.00
H2       0.64518    0.39288    0.61383   1.00
H2       0.79305    0.44854    0.37025   1.00
H2       0.65822    0.44206    0.62149   1.00
H2       0.81128    0.43896    0.41739   1.00
H2       0.64242    0.42668    0.57502   1.00
C4       0.74886    0.48025    0.24535   1.00
C4       0.74985    0.52191    0.24415   1.00
C3       0.71366    0.45897    0.25144   1.00
C3       0.71531    0.54504    0.24486   1.00
C3       0.78415    0.45854    0.24036   1.00
C3       0.78653    0.54170    0.24212   1.00
C2       0.74651    0.39595    0.24585   1.00
C2       0.75189    0.60622    0.24368   1.00
C3       0.71241    0.41811    0.25151   1.00
C3       0.71622    0.58591    0.24483   1.00
C3       0.78159    0.41696    0.24040   1.00
C3       0.78621    0.58336    0.24236   1.00
H1       0.68767    0.47237    0.25646   1.00
H1       0.68816    0.53306    0.24503   1.00
C5       0.82073    0.47835    0.23574   1.00
C5       0.82222    0.51998    0.23968   1.00
H1       0.68607    0.40451    0.25590   1.00
H1       0.69028    0.60091    0.24553   1.00
H1       0.80601    0.40052    0.23668   1.00
H1       0.81171    0.59848    0.24121   1.00
C6       0.85714    0.45515    0.22635   1.00
C6       0.86093    0.54119    0.24174   1.00
H2       0.85020    0.43345    0.20417   1.00
H2       0.85955    0.56310    0.26474   1.00
H2       0.87881    0.47286    0.21142   1.00
H2       0.88411    0.52228    0.25230   1.00
C6       0.87637    0.43606    0.26321   1.00
C6       0.87365    0.55942    0.20176   1.00
H2       0.85374    0.42292    0.28146   1.00
H2       0.84865    0.57383    0.18816   1.00
C6       0.90874    0.40459    0.25624   1.00
C6       0.90837    0.58911    0.20219   1.00
H2       0.88884    0.45949    0.28088   1.00
H2       0.88123    0.53546    0.18214   1.00
C6       0.89194    0.36735    0.23673   1.00
C6       0.89764    0.62708    0.22439   1.00
C6       0.94253    0.42074    0.23092   1.00
C6       0.94552    0.57107    0.22059   1.00
C6       0.92592    0.39245    0.29637   1.00
C6       0.91809    0.60054    0.15943   1.00
H2       0.86758    0.35558    0.25358   1.00
H2       0.87114    0.64020    0.21250   1.00
H2       0.88149    0.37330    0.20732   1.00
H2       0.89277    0.62154    0.25529   1.00
H2       0.91410    0.34459    0.23447   1.00
H2       0.92098    0.64863    0.22221   1.00
H2       0.96619    0.39955    0.22856   1.00
H2       0.97027    0.59098    0.21822   1.00
H2       0.93256    0.42725    0.20142   1.00
H2       0.94110    0.56494    0.25149   1.00
H2       0.95435    0.44745    0.24359   1.00
H2       0.95324    0.54385    0.20602   1.00
H2       0.90328    0.38042    0.31529   1.00
H2       0.89288    0.61383    0.14518   1.00
H2       0.94854    0.37025    0.29305   1.00
H2       0.94206    0.62149    0.15822   1.00
H2       0.93896    0.41739    0.31128   1.00
H2       0.92668    0.57502    0.14242   1.00
C4       0.51975    0.24535    0.25114   1.00
C4       0.47809    0.24415    0.25015   1.00
C3       0.54103    0.25144    0.28634   1.00
C3       0.45496    0.24486    0.28469   1.00
C3       0.54146    0.24036    0.21585   1.00
C3       0.45830    0.24212    0.21347   1.00
C2       0.60405    0.24585    0.25349   1.00
C2       0.39378    0.24368    0.24811   1.00
C3       0.58189    0.25151    0.28759   1.00
C3       0.41409    0.24483    0.28378   1.00
C3       0.58304    0.24040    0.21841   1.00
C3       0.41664    0.24236    0.21379   1.00
H1       0.52763    0.25646    0.31233   1.00
H1       0.46694    0.24503    0.31184   1.00
C5       0.52165    0.23574    0.17927   1.00
C5       0.48002    0.23968    0.17778   1.00
H1       0.59549    0.25590    0.31393   1.00
H1       0.39909    0.24553    0.30972   1.00
H1       0.59948    0.23668    0.19399   1.00
H1       0.40152    0.24121    0.18829   1.00
C6       0.54485    0.22635    0.14286   1.00
C6       0.45881    0.24174    0.13907   1.00
H2       0.56655    0.20417    0.14980   1.00
H2       0.43690    0.26474    0.14045   1.00
H2       0.52714    0.21142    0.12119   1.00
H2       0.47772    0.25230    0.11589   1.00
C6       0.56394    0.26321    0.12363   1.00
C6       0.44058    0.20176    0.12635   1.00
H2       0.57708    0.28146    0.14626   1.00
H2       0.42617    0.18816    0.15135   1.00
C6       0.59541    0.25624    0.09126   1.00
C6       0.41089    0.20219    0.09163   1.00
H2       0.54051    0.28088    0.11116   1.00
H2       0.46454    0.18214    0.11877   1.00
C6       0.63265    0.23673    0.10806   1.00
C6       0.37292    0.22439    0.10236   1.00
C6       0.57926    0.23092    0.05747   1.00
C6       0.42893    0.22059    0.05448   1.00
C6       0.60755    0.29637    0.07408   1.00
C6       0.39946    0.15943    0.08191   1.00
H2       0.64442    0.25358    0.13242   1.00
H2       0.35980    0.21250    0.12886   1.00
H2       0.62670    0.20732    0.11851   1.00
H2       0.37846    0.25529    0.10723   1.00
H2       0.65541    0.23447    0.08590   1.00
H2       0.35137    0.22221    0.07902   1.00
H2       0.60045    0.22856    0.03381   1.00
H2       0.40902    0.21822    0.02973   1.00
H2       0.57275    0.20142    0.06744   1.00
H2       0.43506    0.25149    0.05890   1.00
H2       0.55255    0.24359    0.04565   1.00
H2       0.45615    0.20602    0.04676   1.00
H2       0.61958    0.31529    0.09672   1.00
H2       0.38617    0.14518    0.10712   1.00
H2       0.62975    0.29305    0.05146   1.00
H2       0.37851    0.15822    0.05794   1.00
H2       0.58261    0.31128    0.06104   1.00
H2       0.42498    0.14242    0.07332   1.00
C4       0.98025    0.24535    0.24886   1.00
C4       1.02191    0.24415    0.24985   1.00
C3       0.95897    0.25144    0.21366   1.00
C3       1.04504    0.24486    0.21531   1.00
C3       0.95854    0.24036    0.28415   1.00
C3       1.04170    0.24212    0.28653   1.00
C2       0.89595    0.24585    0.24651   1.00
C2       1.10622    0.24368    0.25189   1.00
C3       0.91811    0.25151    0.21241   1.00
C3       1.08591    0.24483    0.21622   1.00
C3       0.91696    0.24040    0.28159   1.00
C3       1.08336    0.24236    0.28621   1.00
H1       0.97237    0.25646    0.18767   1.00
H1       1.03306    0.24503    0.18816   1.00
C5       0.97835    0.23574    0.32073   1.00
C5       1.01998    0.23968    0.32222   1.00
H1       0.90451    0.25590    0.18607   1.00
H1       1.10091    0.24553    0.19028   1.00
H1       0.90052    0.23668    0.30601   1.00
H1       1.09848    0.24121    0.31171   1.00
C6       0.95515    0.22635    0.35714   1.00
C6       1.04119    0.24174    0.36093   1.00
H2       0.93345    0.20417    0.35020   1.00
H2       1.06310    0.26474    0.35955   1.00
H2       0.97286    0.21142    0.37881   1.00
H2       1.02228    0.25230    0.38411   1.00
C6       0.93606    0.26321    0.37637   1.00
C6       1.05942    0.20176    0.37365   1.00
H2       0.92292    0.28146    0.35374   1.00
H2       1.07383    0.18816    0.34865   1.00
C6       0.90459    0.25624    0.40874   1.00
C6       1.08911    0.20219    0.40837   1.00
H2       0.95949    0.28088    0.38884   1.00
H2       1.03546    0.18214    0.38123   1.00
C6       0.86735    0.23673    0.39194   1.00
C6       1.12708    0.22439    0.39764   1.00
C6       0.92074    0.23092    0.44253   1.00
C6       1.07107    0.22059    0.44552   1.00
C6       0.89245    0.29637    0.42592   1.00
C6       1.10054    0.15943    0.41809   1.00
H2       0.85558    0.25358    0.36758   1.00
H2       1.14020    0.21250    0.37114   1.00
H2       0.87330    0.20732    0.38149   1.00
H2       1.12154    0.25529    0.39277   1.00
H2       0.84459    0.23447    0.41410   1.00
H2       1.14863    0.22221    0.42098   1.00
H2       0.89955    0.22856    0.46619   1.00
H2       1.09098    0.21822    0.47027   1.00
H2       0.92725    0.20142    0.43256   1.00
H2       1.06494    0.25149    0.44110   1.00
H2       0.94745    0.24359    0.45435   1.00
H2       1.04385    0.20602    0.45324   1.00
H2       0.88042    0.31529    0.40328   1.00
H2       1.11383    0.14518    0.39288   1.00
H2       0.87025    0.29305    0.44854   1.00
H2       1.12149    0.15822    0.44206   1.00
H2       0.91739    0.31128    0.43896   1.00
H2       1.07502    0.14242    0.42668   1.00
C4       0.75114    0.01975    0.24535   1.00
C4       0.75015    -0.02191   0.24415   1.00
C3       0.78634    0.04103    0.25144   1.00
C3       0.78469    -0.04504   0.24486   1.00
C3       0.71585    0.04146    0.24036   1.00
C3       0.71347    -0.04170   0.24212   1.00
C2       0.75349    0.10405    0.24585   1.00
C2       0.74811    -0.10622   0.24368   1.00
C3       0.78759    0.08189    0.25151   1.00
C3       0.78378    -0.08591   0.24483   1.00
C3       0.71841    0.08304    0.24040   1.00
C3       0.71379    -0.08336   0.24236   1.00
H1       0.81233    0.02763    0.25646   1.00
H1       0.81184    -0.03306   0.24503   1.00
C5       0.67927    0.02165    0.23574   1.00
C5       0.67778    -0.01998   0.23968   1.00
H1       0.81393    0.09549    0.25590   1.00
H1       0.80972    -0.10091   0.24553   1.00
H1       0.69399    0.09948    0.23668   1.00
H1       0.68829    -0.09848   0.24121   1.00
C6       0.64286    0.04485    0.22635   1.00
C6       0.63907    -0.04119   0.24174   1.00
H2       0.64980    0.06655    0.20417   1.00
H2       0.64045    -0.06310   0.26474   1.00
H2       0.62119    0.02714    0.21142   1.00
H2       0.61589    -0.02228   0.25230   1.00
C6       0.62363    0.06394    0.26321   1.00
C6       0.62635    -0.05942   0.20176   1.00
H2       0.64626    0.07708    0.28146   1.00
H2       0.65135    -0.07383   0.18816   1.00
C6       0.59126    0.09541    0.25624   1.00
C6       0.59163    -0.08911   0.20219   1.00
H2       0.61116    0.04051    0.28088   1.00
H2       0.61877    -0.03546   0.18214   1.00
C6       0.60806    0.13265    0.23673   1.00
C6       0.60236    -0.12708   0.22439   1.00
C6       0.55747    0.07926    0.23092   1.00
C6       0.55448    -0.07107   0.22059   1.00
C6       0.57408    0.10755    0.29637   1.00
C6       0.58191    -0.10054   0.15943   1.00
H2       0.63242    0.14442    0.25358   1.00
H2       0.62886    -0.14020   0.21250   1.00
H2       0.61851    0.12670    0.20732   1.00
H2       0.60723    -0.12154   0.25529   1.00
H2       0.58590    0.15541    0.23447   1.00
H2       0.57902    -0.14863   0.22221   1.00
H2       0.53381    0.10045    0.22856   1.00
H2       0.52973    -0.09098   0.21822   1.00
H2       0.56744    0.07275    0.20142   1.00
H2       0.55890    -0.06494   0.25149   1.00
H2       0.54565    0.05255    0.24359   1.00
H2       0.54676    -0.04385   0.20602   1.00
H2       0.59672    0.11958    0.31529   1.00
H2       0.60712    -0.11383   0.14518   1.00
H2       0.55146    0.12975    0.29305   1.00
H2       0.55794    -0.12149   0.15822   1.00
H2       0.56104    0.08261    0.31128   1.00
H2       0.57332    -0.07502   0.14242   1.00
C4       0.74535    0.25114    0.01975   1.00
C4       0.74415    0.25015    -0.02191   1.00
C3       0.75144    0.28634    0.04103   1.00
C3       0.74486    0.28469    -0.04504   1.00
C3       0.74036    0.21585    0.04146   1.00
C3       0.74212    0.21347    -0.04170   1.00
C2       0.74585    0.25349    0.10405   1.00
C2       0.74368    0.24811    -0.10622   1.00
C3       0.75151    0.28759    0.08189   1.00
C3       0.74483    0.28378    -0.08591   1.00
C3       0.74040    0.21841    0.08304   1.00
C3       0.74236    0.21379    -0.08336   1.00
H1       0.75646    0.31233    0.02763   1.00
H1       0.74503    0.31184    -0.03306   1.00
C5       0.73574    0.17927    0.02165   1.00
C5       0.73968    0.17778    -0.01998   1.00
H1       0.75590    0.31393    0.09549   1.00
H1       0.74553    0.30972    -0.10091   1.00
H1       0.73668    0.19399    0.09948   1.00
H1       0.74121    0.18829    -0.09848   1.00
C6       0.72635    0.14286    0.04485   1.00
C6       0.74174    0.13907    -0.04119   1.00
H2       0.70417    0.14980    0.06655   1.00
H2       0.76474    0.14045    -0.06310   1.00
H2       0.71142    0.12119    0.02714   1.00
H2       0.75230    0.11589    -0.02228   1.00
C6       0.76321    0.12363    0.06394   1.00
C6       0.70176    0.12635    -0.05942   1.00
H2       0.78146    0.14626    0.07708   1.00
H2       0.68816    0.15135    -0.07383   1.00
C6       0.75624    0.09126    0.09541   1.00
C6       0.70219    0.09163    -0.08911   1.00
H2       0.78088    0.11116    0.04051   1.00
H2       0.68214    0.11877    -0.03546   1.00
C6       0.73673    0.10806    0.13265   1.00
C6       0.72439    0.10236    -0.12708   1.00
C6       0.73092    0.05747    0.07926   1.00
C6       0.72059    0.05448    -0.07107   1.00
C6       0.79637    0.07408    0.10755   1.00
C6       0.65943    0.08191    -0.10054   1.00
H2       0.75358    0.13242    0.14442   1.00
H2       0.71250    0.12886    -0.14020   1.00
H2       0.70732    0.11851    0.12670   1.00
H2       0.75529    0.10723    -0.12154   1.00
H2       0.73447    0.08590    0.15541   1.00
H2       0.72221    0.07902    -0.14863   1.00
H2       0.72856    0.03381    0.10045   1.00
H2       0.71822    0.02973    -0.09098   1.00
H2       0.70142    0.06744    0.07275   1.00
H2       0.75149    0.05890    -0.06494   1.00
H2       0.74359    0.04565    0.05255   1.00
H2       0.70602    0.04676    -0.04385   1.00
H2       0.81529    0.09672    0.11958   1.00
H2       0.64518    0.10712    -0.11383   1.00
H2       0.79305    0.05146    0.12975   1.00
H2       0.65822    0.05794    -0.12149   1.00
H2       0.81128    0.06104    0.08261   1.00
H2       0.64242    0.07332    -0.07502   1.00
