data_IRMOF10_SG202_Ligand8_label_o.

_audit_creation_method             'generated by an auxiliary program of Tobunporous'

_symmetry_space_group_name_H-M     'P 1'
_symmetry_Int_Tables_number        1
_symmetry_cell_setting             triclinic

_cell_length_a                    34.2800
_cell_length_b                    34.2800
_cell_length_c                    34.2800
_cell_angle_alpha                 90.0000
_cell_angle_beta                  90.0000
_cell_angle_gamma                 90.0000

loop_
_atom_site_label
_atom_site_fract_x
_atom_site_fract_y
_atom_site_fract_z
_atom_site_occupancy
O1       0.75000    0.75000    0.75000   1.00
Zn1      0.71720    0.78280    0.78280   1.00
Zn1      0.78280    0.71720    0.78280   1.00
Zn1      0.78280    0.78280    0.71720   1.00
Zn1      0.71720    0.71720    0.71720   1.00
O2       0.72650    0.77350    0.83820   1.00
O2       0.72650    0.83820    0.77350   1.00
O2       0.66180    0.77350    0.77350   1.00
O2       0.77350    0.72650    0.83820   1.00
O2       0.83820    0.72650    0.77350   1.00
O2       0.77350    0.66180    0.77350   1.00
O2       0.77350    0.83820    0.72650   1.00
O2       0.83820    0.77350    0.72650   1.00
O2       0.77350    0.77350    0.66180   1.00
O2       0.66180    0.72650    0.72650   1.00
O2       0.72650    0.66180    0.72650   1.00
O2       0.72650    0.72650    0.66180   1.00
C1       0.75000    0.75000    0.85520   1.00
C1       0.75000    0.85520    0.75000   1.00
C1       0.64480    0.75000    0.75000   1.00
C1       0.85520    0.75000    0.75000   1.00
C1       0.75000    0.64480    0.75000   1.00
C1       0.75000    0.75000    0.64480   1.00
O1       0.25000    0.25000    0.75000   1.00
Zn1      0.21720    0.28280    0.78280   1.00
Zn1      0.28280    0.21720    0.78280   1.00
Zn1      0.28280    0.28280    0.71720   1.00
Zn1      0.21720    0.21720    0.71720   1.00
O2       0.22650    0.27350    0.83820   1.00
O2       0.22650    0.33820    0.77350   1.00
O2       0.16180    0.27350    0.77350   1.00
O2       0.27350    0.22650    0.83820   1.00
O2       0.33820    0.22650    0.77350   1.00
O2       0.27350    0.16180    0.77350   1.00
O2       0.27350    0.33820    0.72650   1.00
O2       0.33820    0.27350    0.72650   1.00
O2       0.27350    0.27350    0.66180   1.00
O2       0.16180    0.22650    0.72650   1.00
O2       0.22650    0.16180    0.72650   1.00
O2       0.22650    0.22650    0.66180   1.00
C1       0.25000    0.25000    0.85520   1.00
C1       0.25000    0.35520    0.75000   1.00
C1       0.14480    0.25000    0.75000   1.00
C1       0.35520    0.25000    0.75000   1.00
C1       0.25000    0.14480    0.75000   1.00
C1       0.25000    0.25000    0.64480   1.00
O1       0.25000    0.75000    0.25000   1.00
Zn1      0.21720    0.78280    0.28280   1.00
Zn1      0.28280    0.71720    0.28280   1.00
Zn1      0.28280    0.78280    0.21720   1.00
Zn1      0.21720    0.71720    0.21720   1.00
O2       0.22650    0.77350    0.33820   1.00
O2       0.22650    0.83820    0.27350   1.00
O2       0.16180    0.77350    0.27350   1.00
O2       0.27350    0.72650    0.33820   1.00
O2       0.33820    0.72650    0.27350   1.00
O2       0.27350    0.66180    0.27350   1.00
O2       0.27350    0.83820    0.22650   1.00
O2       0.33820    0.77350    0.22650   1.00
O2       0.27350    0.77350    0.16180   1.00
O2       0.16180    0.72650    0.22650   1.00
O2       0.22650    0.66180    0.22650   1.00
O2       0.22650    0.72650    0.16180   1.00
C1       0.25000    0.75000    0.35520   1.00
C1       0.25000    0.85520    0.25000   1.00
C1       0.14480    0.75000    0.25000   1.00
C1       0.35520    0.75000    0.25000   1.00
C1       0.25000    0.64480    0.25000   1.00
C1       0.25000    0.75000    0.14480   1.00
O1       0.75000    0.25000    0.25000   1.00
Zn1      0.71720    0.28280    0.28280   1.00
Zn1      0.78280    0.21720    0.28280   1.00
Zn1      0.78280    0.28280    0.21720   1.00
Zn1      0.71720    0.21720    0.21720   1.00
O2       0.72650    0.27350    0.33820   1.00
O2       0.72650    0.33820    0.27350   1.00
O2       0.66180    0.27350    0.27350   1.00
O2       0.77350    0.22650    0.33820   1.00
O2       0.83820    0.22650    0.27350   1.00
O2       0.77350    0.16180    0.27350   1.00
O2       0.77350    0.33820    0.22650   1.00
O2       0.83820    0.27350    0.22650   1.00
O2       0.77350    0.27350    0.16180   1.00
O2       0.66180    0.22650    0.22650   1.00
O2       0.72650    0.16180    0.22650   1.00
O2       0.72650    0.22650    0.16180   1.00
C1       0.75000    0.25000    0.35520   1.00
C1       0.75000    0.35520    0.25000   1.00
C1       0.64480    0.25000    0.25000   1.00
C1       0.85520    0.25000    0.25000   1.00
C1       0.75000    0.14480    0.25000   1.00
C1       0.75000    0.25000    0.14480   1.00
O1       0.25000    0.25000    0.25000   1.00
Zn1      0.28280    0.21720    0.21720   1.00
Zn1      0.21720    0.28280    0.21720   1.00
Zn1      0.21720    0.21720    0.28280   1.00
Zn1      0.28280    0.28280    0.28280   1.00
O2       0.27350    0.22650    0.16180   1.00
O2       0.27350    0.16180    0.22650   1.00
O2       0.33820    0.22650    0.22650   1.00
O2       0.22650    0.27350    0.16180   1.00
O2       0.16180    0.27350    0.22650   1.00
O2       0.22650    0.33820    0.22650   1.00
O2       0.22650    0.16180    0.27350   1.00
O2       0.16180    0.22650    0.27350   1.00
O2       0.22650    0.22650    0.33820   1.00
O2       0.33820    0.27350    0.27350   1.00
O2       0.27350    0.33820    0.27350   1.00
O2       0.27350    0.27350    0.33820   1.00
C1       0.25000    0.25000    0.14480   1.00
C1       0.25000    0.14480    0.25000   1.00
C1       0.35520    0.25000    0.25000   1.00
C1       0.14480    0.25000    0.25000   1.00
C1       0.25000    0.35520    0.25000   1.00
C1       0.25000    0.25000    0.35520   1.00
O1       0.75000    0.75000    0.25000   1.00
Zn1      0.78280    0.71720    0.21720   1.00
Zn1      0.71720    0.78280    0.21720   1.00
Zn1      0.71720    0.71720    0.28280   1.00
Zn1      0.78280    0.78280    0.28280   1.00
O2       0.77350    0.72650    0.16180   1.00
O2       0.77350    0.66180    0.22650   1.00
O2       0.83820    0.72650    0.22650   1.00
O2       0.72650    0.77350    0.16180   1.00
O2       0.66180    0.77350    0.22650   1.00
O2       0.72650    0.83820    0.22650   1.00
O2       0.72650    0.66180    0.27350   1.00
O2       0.66180    0.72650    0.27350   1.00
O2       0.72650    0.72650    0.33820   1.00
O2       0.83820    0.77350    0.27350   1.00
O2       0.77350    0.83820    0.27350   1.00
O2       0.77350    0.77350    0.33820   1.00
C1       0.75000    0.75000    0.14480   1.00
C1       0.75000    0.64480    0.25000   1.00
C1       0.85520    0.75000    0.25000   1.00
C1       0.64480    0.75000    0.25000   1.00
C1       0.75000    0.85520    0.25000   1.00
C1       0.75000    0.75000    0.35520   1.00
O1       0.75000    0.25000    0.75000   1.00
Zn1      0.78280    0.21720    0.71720   1.00
Zn1      0.71720    0.28280    0.71720   1.00
Zn1      0.71720    0.21720    0.78280   1.00
Zn1      0.78280    0.28280    0.78280   1.00
O2       0.77350    0.22650    0.66180   1.00
O2       0.77350    0.16180    0.72650   1.00
O2       0.83820    0.22650    0.72650   1.00
O2       0.72650    0.27350    0.66180   1.00
O2       0.66180    0.27350    0.72650   1.00
O2       0.72650    0.33820    0.72650   1.00
O2       0.72650    0.16180    0.77350   1.00
O2       0.66180    0.22650    0.77350   1.00
O2       0.72650    0.22650    0.83820   1.00
O2       0.83820    0.27350    0.77350   1.00
O2       0.77350    0.33820    0.77350   1.00
O2       0.77350    0.27350    0.83820   1.00
C1       0.75000    0.25000    0.64480   1.00
C1       0.75000    0.14480    0.75000   1.00
C1       0.85520    0.25000    0.75000   1.00
C1       0.64480    0.25000    0.75000   1.00
C1       0.75000    0.35520    0.75000   1.00
C1       0.75000    0.25000    0.85520   1.00
O1       0.25000    0.75000    0.75000   1.00
Zn1      0.28280    0.71720    0.71720   1.00
Zn1      0.21720    0.78280    0.71720   1.00
Zn1      0.21720    0.71720    0.78280   1.00
Zn1      0.28280    0.78280    0.78280   1.00
O2       0.27350    0.72650    0.66180   1.00
O2       0.27350    0.66180    0.72650   1.00
O2       0.33820    0.72650    0.72650   1.00
O2       0.22650    0.77350    0.66180   1.00
O2       0.16180    0.77350    0.72650   1.00
O2       0.22650    0.83820    0.72650   1.00
O2       0.22650    0.66180    0.77350   1.00
O2       0.16180    0.72650    0.77350   1.00
O2       0.22650    0.72650    0.83820   1.00
O2       0.33820    0.77350    0.77350   1.00
O2       0.27350    0.83820    0.77350   1.00
O2       0.27350    0.77350    0.83820   1.00
C1       0.25000    0.75000    0.64480   1.00
C1       0.25000    0.64480    0.75000   1.00
C1       0.35520    0.75000    0.75000   1.00
C1       0.14480    0.75000    0.75000   1.00
C1       0.25000    0.85520    0.75000   1.00
C1       0.25000    0.75000    0.85520   1.00
C4       0.75000    0.74990    0.97915   1.00
C4       0.75000    0.75010    1.02085   1.00
C3       0.77506    0.72577    0.95708   1.00
C3       0.72082    0.73042    1.04225   1.00
C3       0.72432    0.77438    0.95816   1.00
C3a      0.77968    0.76966    1.04263   1.00
C2       0.74916    0.75125    0.89483   1.00
C2       0.75054    0.74863    1.10517   1.00
C3       0.77460    0.72650    0.91566   1.00
C3       0.72115    0.72972    1.08359   1.00
C3       0.72404    0.77516    0.91680   1.00
C3       0.77955    0.76851    1.08415   1.00
H1       0.79505    0.70633    0.97192   1.00
H1       0.69777    0.71523    1.02685   1.00
H1       0.79427    0.70765    0.89968   1.00
H1       0.69830    0.71422    1.09895   1.00
H1       0.70431    0.79473    0.90179   1.00
H1       0.80207    0.78353    1.10043   1.00
C5       0.81146    0.79274    1.02239   1.00
H1       0.70508    0.79379    0.97401   1.00
H2       0.83401    0.80255    1.04354   1.00
H2       0.82662    0.77363    1.00103   1.00
N1       0.79515    0.82706    1.00292   1.00
C6       0.77528    0.85628    1.02012   1.00
C6       0.79758    0.83538    0.96460   1.00
C6       0.76457    0.88343    0.99243   1.00
C6       0.77874    0.87013    0.95711   1.00
H3       0.76869    0.85774    1.05099   1.00
H3       0.81178    0.81709    0.94309   1.00
H3       0.74828    0.90998    0.99741   1.00
H3       0.77566    0.88415    0.92903   1.00
C4       0.74990    0.97915    0.75000   1.00
C4       0.75010    1.02085    0.75000   1.00
C3       0.72577    0.95708    0.77506   1.00
C3       0.73042    1.04225    0.72082   1.00
C3       0.77438    0.95816    0.72432   1.00
C3a      0.76966    1.04263    0.77968   1.00
C2       0.75125    0.89483    0.74916   1.00
C2       0.74863    1.10517    0.75054   1.00
C3       0.72650    0.91566    0.77460   1.00
C3       0.72972    1.08359    0.72115   1.00
C3       0.77516    0.91680    0.72404   1.00
C3       0.76851    1.08415    0.77955   1.00
H1       0.70633    0.97192    0.79505   1.00
H1       0.71523    1.02685    0.69777   1.00
H1       0.70765    0.89968    0.79427   1.00
H1       0.71422    1.09895    0.69830   1.00
H1       0.79473    0.90179    0.70431   1.00
H1       0.78353    1.10043    0.80207   1.00
C5       0.79274    1.02239    0.81146   1.00
H1       0.79379    0.97401    0.70508   1.00
H2       0.80255    1.04354    0.83401   1.00
H2       0.77363    1.00103    0.82662   1.00
N1       0.82706    1.00292    0.79515   1.00
C6       0.85628    1.02012    0.77528   1.00
C6       0.83538    0.96460    0.79758   1.00
C6       0.88343    0.99243    0.76457   1.00
C6       0.87013    0.95711    0.77874   1.00
H3       0.85774    1.05099    0.76869   1.00
H3       0.81709    0.94309    0.81178   1.00
H3       0.90998    0.99741    0.74828   1.00
H3       0.88415    0.92903    0.77566   1.00
C4       0.52085    0.75000    0.75010   1.00
C4       0.47915    0.75000    0.74990   1.00
C3       0.54292    0.77506    0.77423   1.00
C3       0.45775    0.72082    0.76958   1.00
C3       0.54184    0.72432    0.72562   1.00
C3a      0.45737    0.77968    0.73034   1.00
C2       0.60517    0.74916    0.74875   1.00
C2       0.39483    0.75054    0.75137   1.00
C3       0.58434    0.77460    0.77350   1.00
C3       0.41641    0.72115    0.77028   1.00
C3       0.58320    0.72404    0.72484   1.00
C3       0.41585    0.77955    0.73149   1.00
H1       0.52808    0.79505    0.79367   1.00
H1       0.47315    0.69777    0.78477   1.00
H1       0.60032    0.79427    0.79235   1.00
H1       0.40105    0.69830    0.78578   1.00
H1       0.59821    0.70431    0.70527   1.00
H1       0.39957    0.80207    0.71647   1.00
C5       0.47761    0.81146    0.70726   1.00
H1       0.52599    0.70508    0.70621   1.00
H2       0.45646    0.83401    0.69745   1.00
H2       0.49897    0.82662    0.72637   1.00
N1       0.49708    0.79515    0.67294   1.00
C6       0.47988    0.77528    0.64372   1.00
C6       0.53540    0.79758    0.66462   1.00
C6       0.50757    0.76457    0.61657   1.00
C6       0.54289    0.77874    0.62987   1.00
H3       0.44901    0.76869    0.64226   1.00
H3       0.55691    0.81178    0.68291   1.00
H3       0.50259    0.74828    0.59002   1.00
H3       0.57097    0.77566    0.61585   1.00
C4       0.97915    0.75000    0.74990   1.00
C4       1.02085    0.75000    0.75010   1.00
C3       0.95708    0.77506    0.72577   1.00
C3       1.04225    0.72082    0.73042   1.00
C3       0.95816    0.72432    0.77438   1.00
C3a      1.04263    0.77968    0.76966   1.00
C2       0.89483    0.74916    0.75125   1.00
C2       1.10517    0.75054    0.74863   1.00
C3       0.91566    0.77460    0.72650   1.00
C3       1.08359    0.72115    0.72972   1.00
C3       0.91680    0.72404    0.77516   1.00
C3       1.08415    0.77955    0.76851   1.00
H1       0.97192    0.79505    0.70633   1.00
H1       1.02685    0.69777    0.71523   1.00
H1       0.89968    0.79427    0.70765   1.00
H1       1.09895    0.69830    0.71422   1.00
H1       0.90179    0.70431    0.79473   1.00
H1       1.10043    0.80207    0.78353   1.00
C5       1.02239    0.81146    0.79274   1.00
H1       0.97401    0.70508    0.79379   1.00
H2       1.04354    0.83401    0.80255   1.00
H2       1.00103    0.82662    0.77363   1.00
N1       1.00292    0.79515    0.82706   1.00
C6       1.02012    0.77528    0.85628   1.00
C6       0.96460    0.79758    0.83538   1.00
C6       0.99243    0.76457    0.88343   1.00
C6       0.95711    0.77874    0.87013   1.00
H3       1.05099    0.76869    0.85774   1.00
H3       0.94309    0.81178    0.81709   1.00
H3       0.99741    0.74828    0.90998   1.00
H3       0.92903    0.77566    0.88415   1.00
C4       0.75010    0.52085    0.75000   1.00
C4       0.74990    0.47915    0.75000   1.00
C3       0.77423    0.54292    0.77506   1.00
C3       0.76958    0.45775    0.72082   1.00
C3       0.72562    0.54184    0.72432   1.00
C3a      0.73034    0.45737    0.77968   1.00
C2       0.74875    0.60517    0.74916   1.00
C2       0.75137    0.39483    0.75054   1.00
C3       0.77350    0.58434    0.77460   1.00
C3       0.77028    0.41641    0.72115   1.00
C3       0.72484    0.58320    0.72404   1.00
C3       0.73149    0.41585    0.77955   1.00
H1       0.79367    0.52808    0.79505   1.00
H1       0.78477    0.47315    0.69777   1.00
H1       0.79235    0.60032    0.79427   1.00
H1       0.78578    0.40105    0.69830   1.00
H1       0.70527    0.59821    0.70431   1.00
H1       0.71647    0.39957    0.80207   1.00
C5       0.70726    0.47761    0.81146   1.00
H1       0.70621    0.52599    0.70508   1.00
H2       0.69745    0.45646    0.83401   1.00
H2       0.72637    0.49897    0.82662   1.00
N1       0.67294    0.49708    0.79515   1.00
C6       0.64372    0.47988    0.77528   1.00
C6       0.66462    0.53540    0.79758   1.00
C6       0.61657    0.50757    0.76457   1.00
C6       0.62987    0.54289    0.77874   1.00
H3       0.64226    0.44901    0.76869   1.00
H3       0.68291    0.55691    0.81178   1.00
H3       0.59002    0.50259    0.74828   1.00
H3       0.61585    0.57097    0.77566   1.00
C4       0.75000    0.75010    0.52085   1.00
C4       0.75000    0.74990    0.47915   1.00
C3       0.77506    0.77423    0.54292   1.00
C3       0.72082    0.76958    0.45775   1.00
C3       0.72432    0.72562    0.54184   1.00
C3a      0.77968    0.73034    0.45737   1.00
C2       0.74916    0.74875    0.60517   1.00
C2       0.75054    0.75137    0.39483   1.00
C3       0.77460    0.77350    0.58434   1.00
C3       0.72115    0.77028    0.41641   1.00
C3       0.72404    0.72484    0.58320   1.00
C3       0.77955    0.73149    0.41585   1.00
H1       0.79505    0.79367    0.52808   1.00
H1       0.69777    0.78477    0.47315   1.00
H1       0.79427    0.79235    0.60032   1.00
H1       0.69830    0.78578    0.40105   1.00
H1       0.70431    0.70527    0.59821   1.00
H1       0.80207    0.71647    0.39957   1.00
C5       0.81146    0.70726    0.47761   1.00
H1       0.70508    0.70621    0.52599   1.00
H2       0.83401    0.69745    0.45646   1.00
H2       0.82662    0.72637    0.49897   1.00
N1       0.79515    0.67294    0.49708   1.00
C6       0.77528    0.64372    0.47988   1.00
C6       0.79758    0.66462    0.53540   1.00
C6       0.76457    0.61657    0.50757   1.00
C6       0.77874    0.62987    0.54289   1.00
H3       0.76869    0.64226    0.44901   1.00
H3       0.81178    0.68291    0.55691   1.00
H3       0.74828    0.59002    0.50259   1.00
H3       0.77566    0.61585    0.57097   1.00
C4       0.25000    0.24990    0.97915   1.00
C4       0.25000    0.25010    1.02085   1.00
C3       0.27506    0.22577    0.95708   1.00
C3       0.22082    0.23042    1.04225   1.00
C3       0.22432    0.27438    0.95816   1.00
C3a      0.27968    0.26966    1.04263   1.00
C2       0.24916    0.25125    0.89483   1.00
C2       0.25054    0.24863    1.10517   1.00
C3       0.27460    0.22650    0.91566   1.00
C3       0.22115    0.22972    1.08359   1.00
C3       0.22404    0.27516    0.91680   1.00
C3       0.27955    0.26851    1.08415   1.00
H1       0.29505    0.20633    0.97192   1.00
H1       0.19777    0.21523    1.02685   1.00
H1       0.29427    0.20765    0.89968   1.00
H1       0.19830    0.21422    1.09895   1.00
H1       0.20431    0.29473    0.90179   1.00
H1       0.30207    0.28353    1.10043   1.00
C5       0.31146    0.29274    1.02239   1.00
H1       0.20508    0.29379    0.97401   1.00
H2       0.33401    0.30255    1.04354   1.00
H2       0.32662    0.27363    1.00103   1.00
N1       0.29515    0.32706    1.00292   1.00
C6       0.27528    0.35628    1.02012   1.00
C6       0.29758    0.33538    0.96460   1.00
C6       0.26457    0.38343    0.99243   1.00
C6       0.27874    0.37013    0.95711   1.00
H3       0.26869    0.35774    1.05099   1.00
H3       0.31178    0.31709    0.94309   1.00
H3       0.24828    0.40998    0.99741   1.00
H3       0.27566    0.38415    0.92903   1.00
C4       0.24990    0.47915    0.75000   1.00
C4       0.25010    0.52085    0.75000   1.00
C3       0.22577    0.45708    0.77506   1.00
C3       0.23042    0.54225    0.72082   1.00
C3       0.27438    0.45816    0.72432   1.00
C3a      0.26966    0.54263    0.77968   1.00
C2       0.25125    0.39483    0.74916   1.00
C2       0.24863    0.60517    0.75054   1.00
C3       0.22650    0.41566    0.77460   1.00
C3       0.22972    0.58359    0.72115   1.00
C3       0.27516    0.41680    0.72404   1.00
C3       0.26851    0.58415    0.77955   1.00
H1       0.20633    0.47192    0.79505   1.00
H1       0.21523    0.52685    0.69777   1.00
H1       0.20765    0.39968    0.79427   1.00
H1       0.21422    0.59895    0.69830   1.00
H1       0.29473    0.40179    0.70431   1.00
H1       0.28353    0.60043    0.80207   1.00
C5       0.29274    0.52239    0.81146   1.00
H1       0.29379    0.47401    0.70508   1.00
H2       0.30255    0.54354    0.83401   1.00
H2       0.27363    0.50103    0.82662   1.00
N1       0.32706    0.50292    0.79515   1.00
C6       0.35628    0.52012    0.77528   1.00
C6       0.33538    0.46460    0.79758   1.00
C6       0.38343    0.49243    0.76457   1.00
C6       0.37013    0.45711    0.77874   1.00
H3       0.35774    0.55099    0.76869   1.00
H3       0.31709    0.44309    0.81178   1.00
H3       0.40998    0.49741    0.74828   1.00
H3       0.38415    0.42903    0.77566   1.00
C4       0.02085    0.25000    0.75010   1.00
C4       -0.02085   0.25000    0.74990   1.00
C3       0.04292    0.27506    0.77423   1.00
C3       -0.04225   0.22082    0.76958   1.00
C3       0.04184    0.22432    0.72562   1.00
C3a      -0.04263   0.27968    0.73034   1.00
C2       0.10517    0.24916    0.74875   1.00
C2       -0.10517   0.25054    0.75137   1.00
C3       0.08434    0.27460    0.77350   1.00
C3       -0.08359   0.22115    0.77028   1.00
C3       0.08320    0.22404    0.72484   1.00
C3       -0.08415   0.27955    0.73149   1.00
H1       0.02808    0.29505    0.79367   1.00
H1       -0.02685   0.19777    0.78477   1.00
H1       0.10032    0.29427    0.79235   1.00
H1       -0.09895   0.19830    0.78578   1.00
H1       0.09821    0.20431    0.70527   1.00
H1       -0.10043   0.30207    0.71647   1.00
C5       -0.02239   0.31146    0.70726   1.00
H1       0.02599    0.20508    0.70621   1.00
H2       -0.04354   0.33401    0.69745   1.00
H2       -0.00103   0.32662    0.72637   1.00
N1       -0.00292   0.29515    0.67294   1.00
C6       -0.02012   0.27528    0.64372   1.00
C6       0.03540    0.29758    0.66462   1.00
C6       0.00757    0.26457    0.61657   1.00
C6       0.04289    0.27874    0.62987   1.00
H3       -0.05099   0.26869    0.64226   1.00
H3       0.05691    0.31178    0.68291   1.00
H3       0.00259    0.24828    0.59002   1.00
H3       0.07097    0.27566    0.61585   1.00
C4       0.47915    0.25000    0.74990   1.00
C4       0.52085    0.25000    0.75010   1.00
C3       0.45708    0.27506    0.72577   1.00
C3       0.54225    0.22082    0.73042   1.00
C3       0.45816    0.22432    0.77438   1.00
C3a      0.54263    0.27968    0.76966   1.00
C2       0.39483    0.24916    0.75125   1.00
C2       0.60517    0.25054    0.74863   1.00
C3       0.41566    0.27460    0.72650   1.00
C3       0.58359    0.22115    0.72972   1.00
C3       0.41680    0.22404    0.77516   1.00
C3       0.58415    0.27955    0.76851   1.00
H1       0.47192    0.29505    0.70633   1.00
H1       0.52685    0.19777    0.71523   1.00
H1       0.39968    0.29427    0.70765   1.00
H1       0.59895    0.19830    0.71422   1.00
H1       0.40179    0.20431    0.79473   1.00
H1       0.60043    0.30207    0.78353   1.00
C5       0.52239    0.31146    0.79274   1.00
H1       0.47401    0.20508    0.79379   1.00
H2       0.54354    0.33401    0.80255   1.00
H2       0.50103    0.32662    0.77363   1.00
N1       0.50292    0.29515    0.82706   1.00
C6       0.52012    0.27528    0.85628   1.00
C6       0.46460    0.29758    0.83538   1.00
C6       0.49243    0.26457    0.88343   1.00
C6       0.45711    0.27874    0.87013   1.00
H3       0.55099    0.26869    0.85774   1.00
H3       0.44309    0.31178    0.81709   1.00
H3       0.49741    0.24828    0.90998   1.00
H3       0.42903    0.27566    0.88415   1.00
C4       0.25010    0.02085    0.75000   1.00
C4       0.24990    -0.02085   0.75000   1.00
C3       0.27423    0.04292    0.77506   1.00
C3       0.26958    -0.04225   0.72082   1.00
C3       0.22562    0.04184    0.72432   1.00
C3a      0.23034    -0.04263   0.77968   1.00
C2       0.24875    0.10517    0.74916   1.00
C2       0.25137    -0.10517   0.75054   1.00
C3       0.27350    0.08434    0.77460   1.00
C3       0.27028    -0.08359   0.72115   1.00
C3       0.22484    0.08320    0.72404   1.00
C3       0.23149    -0.08415   0.77955   1.00
H1       0.29367    0.02808    0.79505   1.00
H1       0.28477    -0.02685   0.69777   1.00
H1       0.29235    0.10032    0.79427   1.00
H1       0.28578    -0.09895   0.69830   1.00
H1       0.20527    0.09821    0.70431   1.00
H1       0.21647    -0.10043   0.80207   1.00
C5       0.20726    -0.02239   0.81146   1.00
H1       0.20621    0.02599    0.70508   1.00
H2       0.19745    -0.04354   0.83401   1.00
H2       0.22637    -0.00103   0.82662   1.00
N1       0.17294    -0.00292   0.79515   1.00
C6       0.14372    -0.02012   0.77528   1.00
C6       0.16462    0.03540    0.79758   1.00
C6       0.11657    0.00757    0.76457   1.00
C6       0.12987    0.04289    0.77874   1.00
H3       0.14226    -0.05099   0.76869   1.00
H3       0.18291    0.05691    0.81178   1.00
H3       0.09002    0.00259    0.74828   1.00
H3       0.11585    0.07097    0.77566   1.00
C4       0.25000    0.25010    0.52085   1.00
C4       0.25000    0.24990    0.47915   1.00
C3       0.27506    0.27423    0.54292   1.00
C3       0.22082    0.26958    0.45775   1.00
C3       0.22432    0.22562    0.54184   1.00
C3a      0.27968    0.23034    0.45737   1.00
C2       0.24916    0.24875    0.60517   1.00
C2       0.25054    0.25137    0.39483   1.00
C3       0.27460    0.27350    0.58434   1.00
C3       0.22115    0.27028    0.41641   1.00
C3       0.22404    0.22484    0.58320   1.00
C3       0.27955    0.23149    0.41585   1.00
H1       0.29505    0.29367    0.52808   1.00
H1       0.19777    0.28477    0.47315   1.00
H1       0.29427    0.29235    0.60032   1.00
H1       0.19830    0.28578    0.40105   1.00
H1       0.20431    0.20527    0.59821   1.00
H1       0.30207    0.21647    0.39957   1.00
C5       0.31146    0.20726    0.47761   1.00
H1       0.20508    0.20621    0.52599   1.00
H2       0.33401    0.19745    0.45646   1.00
H2       0.32662    0.22637    0.49897   1.00
N1       0.29515    0.17294    0.49708   1.00
C6       0.27528    0.14372    0.47988   1.00
C6       0.29758    0.16462    0.53540   1.00
C6       0.26457    0.11657    0.50757   1.00
C6       0.27874    0.12987    0.54289   1.00
H3       0.26869    0.14226    0.44901   1.00
H3       0.31178    0.18291    0.55691   1.00
H3       0.24828    0.09002    0.50259   1.00
H3       0.27566    0.11585    0.57097   1.00
C4       0.25000    0.74990    0.47915   1.00
C4       0.25000    0.75010    0.52085   1.00
C3       0.27506    0.72577    0.45708   1.00
C3       0.22082    0.73042    0.54225   1.00
C3       0.22432    0.77438    0.45816   1.00
C3a      0.27968    0.76966    0.54263   1.00
C2       0.24916    0.75125    0.39483   1.00
C2       0.25054    0.74863    0.60517   1.00
C3       0.27460    0.72650    0.41566   1.00
C3       0.22115    0.72972    0.58359   1.00
C3       0.22404    0.77516    0.41680   1.00
C3       0.27955    0.76851    0.58415   1.00
H1       0.29505    0.70633    0.47192   1.00
H1       0.19777    0.71523    0.52685   1.00
H1       0.29427    0.70765    0.39968   1.00
H1       0.19830    0.71422    0.59895   1.00
H1       0.20431    0.79473    0.40179   1.00
H1       0.30207    0.78353    0.60043   1.00
C5       0.31146    0.79274    0.52239   1.00
H1       0.20508    0.79379    0.47401   1.00
H2       0.33401    0.80255    0.54354   1.00
H2       0.32662    0.77363    0.50103   1.00
N1       0.29515    0.82706    0.50292   1.00
C6       0.27528    0.85628    0.52012   1.00
C6       0.29758    0.83538    0.46460   1.00
C6       0.26457    0.88343    0.49243   1.00
C6       0.27874    0.87013    0.45711   1.00
H3       0.26869    0.85774    0.55099   1.00
H3       0.31178    0.81709    0.44309   1.00
H3       0.24828    0.90998    0.49741   1.00
H3       0.27566    0.88415    0.42903   1.00
C4       0.24990    0.97915    0.25000   1.00
C4       0.25010    1.02085    0.25000   1.00
C3       0.22577    0.95708    0.27506   1.00
C3       0.23042    1.04225    0.22082   1.00
C3       0.27438    0.95816    0.22432   1.00
C3a      0.26966    1.04263    0.27968   1.00
C2       0.25125    0.89483    0.24916   1.00
C2       0.24863    1.10517    0.25054   1.00
C3       0.22650    0.91566    0.27460   1.00
C3       0.22972    1.08359    0.22115   1.00
C3       0.27516    0.91680    0.22404   1.00
C3       0.26851    1.08415    0.27955   1.00
H1       0.20633    0.97192    0.29505   1.00
H1       0.21523    1.02685    0.19777   1.00
H1       0.20765    0.89968    0.29427   1.00
H1       0.21422    1.09895    0.19830   1.00
H1       0.29473    0.90179    0.20431   1.00
H1       0.28353    1.10043    0.30207   1.00
C5       0.29274    1.02239    0.31146   1.00
H1       0.29379    0.97401    0.20508   1.00
H2       0.30255    1.04354    0.33401   1.00
H2       0.27363    1.00103    0.32662   1.00
N1       0.32706    1.00292    0.29515   1.00
C6       0.35628    1.02012    0.27528   1.00
C6       0.33538    0.96460    0.29758   1.00
C6       0.38343    0.99243    0.26457   1.00
C6       0.37013    0.95711    0.27874   1.00
H3       0.35774    1.05099    0.26869   1.00
H3       0.31709    0.94309    0.31178   1.00
H3       0.40998    0.99741    0.24828   1.00
H3       0.38415    0.92903    0.27566   1.00
C4       0.02085    0.75000    0.25010   1.00
C4       -0.02085   0.75000    0.24990   1.00
C3       0.04292    0.77506    0.27423   1.00
C3       -0.04225   0.72082    0.26958   1.00
C3       0.04184    0.72432    0.22562   1.00
C3a      -0.04263   0.77968    0.23034   1.00
C2       0.10517    0.74916    0.24875   1.00
C2       -0.10517   0.75054    0.25137   1.00
C3       0.08434    0.77460    0.27350   1.00
C3       -0.08359   0.72115    0.27028   1.00
C3       0.08320    0.72404    0.22484   1.00
C3       -0.08415   0.77955    0.23149   1.00
H1       0.02808    0.79505    0.29367   1.00
H1       -0.02685   0.69777    0.28477   1.00
H1       0.10032    0.79427    0.29235   1.00
H1       -0.09895   0.69830    0.28578   1.00
H1       0.09821    0.70431    0.20527   1.00
H1       -0.10043   0.80207    0.21647   1.00
C5       -0.02239   0.81146    0.20726   1.00
H1       0.02599    0.70508    0.20621   1.00
H2       -0.04354   0.83401    0.19745   1.00
H2       -0.00103   0.82662    0.22637   1.00
N1       -0.00292   0.79515    0.17294   1.00
C6       -0.02012   0.77528    0.14372   1.00
C6       0.03540    0.79758    0.16462   1.00
C6       0.00757    0.76457    0.11657   1.00
C6       0.04289    0.77874    0.12987   1.00
H3       -0.05099   0.76869    0.14226   1.00
H3       0.05691    0.81178    0.18291   1.00
H3       0.00259    0.74828    0.09002   1.00
H3       0.07097    0.77566    0.11585   1.00
C4       0.47915    0.75000    0.24990   1.00
C4       0.52085    0.75000    0.25010   1.00
C3       0.45708    0.77506    0.22577   1.00
C3       0.54225    0.72082    0.23042   1.00
C3       0.45816    0.72432    0.27438   1.00
C3a      0.54263    0.77968    0.26966   1.00
C2       0.39483    0.74916    0.25125   1.00
C2       0.60517    0.75054    0.24863   1.00
C3       0.41566    0.77460    0.22650   1.00
C3       0.58359    0.72115    0.22972   1.00
C3       0.41680    0.72404    0.27516   1.00
C3       0.58415    0.77955    0.26851   1.00
H1       0.47192    0.79505    0.20633   1.00
H1       0.52685    0.69777    0.21523   1.00
H1       0.39968    0.79427    0.20765   1.00
H1       0.59895    0.69830    0.21422   1.00
H1       0.40179    0.70431    0.29473   1.00
H1       0.60043    0.80207    0.28353   1.00
C5       0.52239    0.81146    0.29274   1.00
H1       0.47401    0.70508    0.29379   1.00
H2       0.54354    0.83401    0.30255   1.00
H2       0.50103    0.82662    0.27363   1.00
N1       0.50292    0.79515    0.32706   1.00
C6       0.52012    0.77528    0.35628   1.00
C6       0.46460    0.79758    0.33538   1.00
C6       0.49243    0.76457    0.38343   1.00
C6       0.45711    0.77874    0.37013   1.00
H3       0.55099    0.76869    0.35774   1.00
H3       0.44309    0.81178    0.31709   1.00
H3       0.49741    0.74828    0.40998   1.00
H3       0.42903    0.77566    0.38415   1.00
C4       0.25010    0.52085    0.25000   1.00
C4       0.24990    0.47915    0.25000   1.00
C3       0.27423    0.54292    0.27506   1.00
C3       0.26958    0.45775    0.22082   1.00
C3       0.22562    0.54184    0.22432   1.00
C3a      0.23034    0.45737    0.27968   1.00
C2       0.24875    0.60517    0.24916   1.00
C2       0.25137    0.39483    0.25054   1.00
C3       0.27350    0.58434    0.27460   1.00
C3       0.27028    0.41641    0.22115   1.00
C3       0.22484    0.58320    0.22404   1.00
C3       0.23149    0.41585    0.27955   1.00
H1       0.29367    0.52808    0.29505   1.00
H1       0.28477    0.47315    0.19777   1.00
H1       0.29235    0.60032    0.29427   1.00
H1       0.28578    0.40105    0.19830   1.00
H1       0.20527    0.59821    0.20431   1.00
H1       0.21647    0.39957    0.30207   1.00
C5       0.20726    0.47761    0.31146   1.00
H1       0.20621    0.52599    0.20508   1.00
H2       0.19745    0.45646    0.33401   1.00
H2       0.22637    0.49897    0.32662   1.00
N1       0.17294    0.49708    0.29515   1.00
C6       0.14372    0.47988    0.27528   1.00
C6       0.16462    0.53540    0.29758   1.00
C6       0.11657    0.50757    0.26457   1.00
C6       0.12987    0.54289    0.27874   1.00
H3       0.14226    0.44901    0.26869   1.00
H3       0.18291    0.55691    0.31178   1.00
H3       0.09002    0.50259    0.24828   1.00
H3       0.11585    0.57097    0.27566   1.00
C4       0.25000    0.75010    0.02085   1.00
C4       0.25000    0.74990    -0.02085   1.00
C3       0.27506    0.77423    0.04292   1.00
C3       0.22082    0.76958    -0.04225   1.00
C3       0.22432    0.72562    0.04184   1.00
C3a      0.27968    0.73034    -0.04263   1.00
C2       0.24916    0.74875    0.10517   1.00
C2       0.25054    0.75137    -0.10517   1.00
C3       0.27460    0.77350    0.08434   1.00
C3       0.22115    0.77028    -0.08359   1.00
C3       0.22404    0.72484    0.08320   1.00
C3       0.27955    0.73149    -0.08415   1.00
H1       0.29505    0.79367    0.02808   1.00
H1       0.19777    0.78477    -0.02685   1.00
H1       0.29427    0.79235    0.10032   1.00
H1       0.19830    0.78578    -0.09895   1.00
H1       0.20431    0.70527    0.09821   1.00
H1       0.30207    0.71647    -0.10043   1.00
C5       0.31146    0.70726    -0.02239   1.00
H1       0.20508    0.70621    0.02599   1.00
H2       0.33401    0.69745    -0.04354   1.00
H2       0.32662    0.72637    -0.00103   1.00
N1       0.29515    0.67294    -0.00292   1.00
C6       0.27528    0.64372    -0.02012   1.00
C6       0.29758    0.66462    0.03540   1.00
C6       0.26457    0.61657    0.00757   1.00
C6       0.27874    0.62987    0.04289   1.00
H3       0.26869    0.64226    -0.05099   1.00
H3       0.31178    0.68291    0.05691   1.00
H3       0.24828    0.59002    0.00259   1.00
H3       0.27566    0.61585    0.07097   1.00
C4       0.75000    0.24990    0.47915   1.00
C4       0.75000    0.25010    0.52085   1.00
C3       0.77506    0.22577    0.45708   1.00
C3       0.72082    0.23042    0.54225   1.00
C3       0.72432    0.27438    0.45816   1.00
C3a      0.77968    0.26966    0.54263   1.00
C2       0.74916    0.25125    0.39483   1.00
C2       0.75054    0.24863    0.60517   1.00
C3       0.77460    0.22650    0.41566   1.00
C3       0.72115    0.22972    0.58359   1.00
C3       0.72404    0.27516    0.41680   1.00
C3       0.77955    0.26851    0.58415   1.00
H1       0.79505    0.20633    0.47192   1.00
H1       0.69777    0.21523    0.52685   1.00
H1       0.79427    0.20765    0.39968   1.00
H1       0.69830    0.21422    0.59895   1.00
H1       0.70431    0.29473    0.40179   1.00
H1       0.80207    0.28353    0.60043   1.00
C5       0.81146    0.29274    0.52239   1.00
H1       0.70508    0.29379    0.47401   1.00
H2       0.83401    0.30255    0.54354   1.00
H2       0.82662    0.27363    0.50103   1.00
N1       0.79515    0.32706    0.50292   1.00
C6       0.77528    0.35628    0.52012   1.00
C6       0.79758    0.33538    0.46460   1.00
C6       0.76457    0.38343    0.49243   1.00
C6       0.77874    0.37013    0.45711   1.00
H3       0.76869    0.35774    0.55099   1.00
H3       0.81178    0.31709    0.44309   1.00
H3       0.74828    0.40998    0.49741   1.00
H3       0.77566    0.38415    0.42903   1.00
C4       0.74990    0.47915    0.25000   1.00
C4       0.75010    0.52085    0.25000   1.00
C3       0.72577    0.45708    0.27506   1.00
C3       0.73042    0.54225    0.22082   1.00
C3       0.77438    0.45816    0.22432   1.00
C3a      0.76966    0.54263    0.27968   1.00
C2       0.75125    0.39483    0.24916   1.00
C2       0.74863    0.60517    0.25054   1.00
C3       0.72650    0.41566    0.27460   1.00
C3       0.72972    0.58359    0.22115   1.00
C3       0.77516    0.41680    0.22404   1.00
C3       0.76851    0.58415    0.27955   1.00
H1       0.70633    0.47192    0.29505   1.00
H1       0.71523    0.52685    0.19777   1.00
H1       0.70765    0.39968    0.29427   1.00
H1       0.71422    0.59895    0.19830   1.00
H1       0.79473    0.40179    0.20431   1.00
H1       0.78353    0.60043    0.30207   1.00
C5       0.79274    0.52239    0.31146   1.00
H1       0.79379    0.47401    0.20508   1.00
H2       0.80255    0.54354    0.33401   1.00
H2       0.77363    0.50103    0.32662   1.00
N1       0.82706    0.50292    0.29515   1.00
C6       0.85628    0.52012    0.27528   1.00
C6       0.83538    0.46460    0.29758   1.00
C6       0.88343    0.49243    0.26457   1.00
C6       0.87013    0.45711    0.27874   1.00
H3       0.85774    0.55099    0.26869   1.00
H3       0.81709    0.44309    0.31178   1.00
H3       0.90998    0.49741    0.24828   1.00
H3       0.88415    0.42903    0.27566   1.00
C4       0.52085    0.25000    0.25010   1.00
C4       0.47915    0.25000    0.24990   1.00
C3       0.54292    0.27506    0.27423   1.00
C3       0.45775    0.22082    0.26958   1.00
C3       0.54184    0.22432    0.22562   1.00
C3a      0.45737    0.27968    0.23034   1.00
C2       0.60517    0.24916    0.24875   1.00
C2       0.39483    0.25054    0.25137   1.00
C3       0.58434    0.27460    0.27350   1.00
C3       0.41641    0.22115    0.27028   1.00
C3       0.58320    0.22404    0.22484   1.00
C3       0.41585    0.27955    0.23149   1.00
H1       0.52808    0.29505    0.29367   1.00
H1       0.47315    0.19777    0.28477   1.00
H1       0.60032    0.29427    0.29235   1.00
H1       0.40105    0.19830    0.28578   1.00
H1       0.59821    0.20431    0.20527   1.00
H1       0.39957    0.30207    0.21647   1.00
C5       0.47761    0.31146    0.20726   1.00
H1       0.52599    0.20508    0.20621   1.00
H2       0.45646    0.33401    0.19745   1.00
H2       0.49897    0.32662    0.22637   1.00
N1       0.49708    0.29515    0.17294   1.00
C6       0.47988    0.27528    0.14372   1.00
C6       0.53540    0.29758    0.16462   1.00
C6       0.50757    0.26457    0.11657   1.00
C6       0.54289    0.27874    0.12987   1.00
H3       0.44901    0.26869    0.14226   1.00
H3       0.55691    0.31178    0.18291   1.00
H3       0.50259    0.24828    0.09002   1.00
H3       0.57097    0.27566    0.11585   1.00
C4       0.97915    0.25000    0.24990   1.00
C4       1.02085    0.25000    0.25010   1.00
C3       0.95708    0.27506    0.22577   1.00
C3       1.04225    0.22082    0.23042   1.00
C3       0.95816    0.22432    0.27438   1.00
C3a      1.04263    0.27968    0.26966   1.00
C2       0.89483    0.24916    0.25125   1.00
C2       1.10517    0.25054    0.24863   1.00
C3       0.91566    0.27460    0.22650   1.00
C3       1.08359    0.22115    0.22972   1.00
C3       0.91680    0.22404    0.27516   1.00
C3       1.08415    0.27955    0.26851   1.00
H1       0.97192    0.29505    0.20633   1.00
H1       1.02685    0.19777    0.21523   1.00
H1       0.89968    0.29427    0.20765   1.00
H1       1.09895    0.19830    0.21422   1.00
H1       0.90179    0.20431    0.29473   1.00
H1       1.10043    0.30207    0.28353   1.00
C5       1.02239    0.31146    0.29274   1.00
H1       0.97401    0.20508    0.29379   1.00
H2       1.04354    0.33401    0.30255   1.00
H2       1.00103    0.32662    0.27363   1.00
N1       1.00292    0.29515    0.32706   1.00
C6       1.02012    0.27528    0.35628   1.00
C6       0.96460    0.29758    0.33538   1.00
C6       0.99243    0.26457    0.38343   1.00
C6       0.95711    0.27874    0.37013   1.00
H3       1.05099    0.26869    0.35774   1.00
H3       0.94309    0.31178    0.31709   1.00
H3       0.99741    0.24828    0.40998   1.00
H3       0.92903    0.27566    0.38415   1.00
C4       0.75010    0.02085    0.25000   1.00
C4       0.74990    -0.02085   0.25000   1.00
C3       0.77423    0.04292    0.27506   1.00
C3       0.76958    -0.04225   0.22082   1.00
C3       0.72562    0.04184    0.22432   1.00
C3a      0.73034    -0.04263   0.27968   1.00
C2       0.74875    0.10517    0.24916   1.00
C2       0.75137    -0.10517   0.25054   1.00
C3       0.77350    0.08434    0.27460   1.00
C3       0.77028    -0.08359   0.22115   1.00
C3       0.72484    0.08320    0.22404   1.00
C3       0.73149    -0.08415   0.27955   1.00
H1       0.79367    0.02808    0.29505   1.00
H1       0.78477    -0.02685   0.19777   1.00
H1       0.79235    0.10032    0.29427   1.00
H1       0.78578    -0.09895   0.19830   1.00
H1       0.70527    0.09821    0.20431   1.00
H1       0.71647    -0.10043   0.30207   1.00
C5       0.70726    -0.02239   0.31146   1.00
H1       0.70621    0.02599    0.20508   1.00
H2       0.69745    -0.04354   0.33401   1.00
H2       0.72637    -0.00103   0.32662   1.00
N1       0.67294    -0.00292   0.29515   1.00
C6       0.64372    -0.02012   0.27528   1.00
C6       0.66462    0.03540    0.29758   1.00
C6       0.61657    0.00757    0.26457   1.00
C6       0.62987    0.04289    0.27874   1.00
H3       0.64226    -0.05099   0.26869   1.00
H3       0.68291    0.05691    0.31178   1.00
H3       0.59002    0.00259    0.24828   1.00
H3       0.61585    0.07097    0.27566   1.00
C4       0.75000    0.25010    0.02085   1.00
C4       0.75000    0.24990    -0.02085   1.00
C3       0.77506    0.27423    0.04292   1.00
C3       0.72082    0.26958    -0.04225   1.00
C3       0.72432    0.22562    0.04184   1.00
C3a      0.77968    0.23034    -0.04263   1.00
C2       0.74916    0.24875    0.10517   1.00
C2       0.75054    0.25137    -0.10517   1.00
C3       0.77460    0.27350    0.08434   1.00
C3       0.72115    0.27028    -0.08359   1.00
C3       0.72404    0.22484    0.08320   1.00
C3       0.77955    0.23149    -0.08415   1.00
H1       0.79505    0.29367    0.02808   1.00
H1       0.69777    0.28477    -0.02685   1.00
H1       0.79427    0.29235    0.10032   1.00
H1       0.69830    0.28578    -0.09895   1.00
H1       0.70431    0.20527    0.09821   1.00
H1       0.80207    0.21647    -0.10043   1.00
C5       0.81146    0.20726    -0.02239   1.00
H1       0.70508    0.20621    0.02599   1.00
H2       0.83401    0.19745    -0.04354   1.00
H2       0.82662    0.22637    -0.00103   1.00
N1       0.79515    0.17294    -0.00292   1.00
C6       0.77528    0.14372    -0.02012   1.00
C6       0.79758    0.16462    0.03540   1.00
C6       0.76457    0.11657    0.00757   1.00
C6       0.77874    0.12987    0.04289   1.00
H3       0.76869    0.14226    -0.05099   1.00
H3       0.81178    0.18291    0.05691   1.00
H3       0.74828    0.09002    0.00259   1.00
H3       0.77566    0.11585    0.07097   1.00
