data_IRMOF10_SG202_Ligand11_label_z.

_audit_creation_method             'generated by an auxiliary program of Tobunporous'

_symmetry_space_group_name_H-M     'P 1'
_symmetry_Int_Tables_number        1
_symmetry_cell_setting             triclinic

_cell_length_a                    34.2800
_cell_length_b                    34.2800
_cell_length_c                    34.2800
_cell_angle_alpha                 90.0000
_cell_angle_beta                  90.0000
_cell_angle_gamma                 90.0000

loop_
_atom_site_label
_atom_site_fract_x
_atom_site_fract_y
_atom_site_fract_z
_atom_site_occupancy
O1       0.75000    0.75000    0.75000   1.00
Zn1      0.71720    0.78280    0.78280   1.00
Zn1      0.78280    0.71720    0.78280   1.00
Zn1      0.78280    0.78280    0.71720   1.00
Zn1      0.71720    0.71720    0.71720   1.00
O2       0.72650    0.77350    0.83820   1.00
O2       0.72650    0.83820    0.77350   1.00
O2       0.66180    0.77350    0.77350   1.00
O2       0.77350    0.72650    0.83820   1.00
O2       0.83820    0.72650    0.77350   1.00
O2       0.77350    0.66180    0.77350   1.00
O2       0.77350    0.83820    0.72650   1.00
O2       0.83820    0.77350    0.72650   1.00
O2       0.77350    0.77350    0.66180   1.00
O2       0.66180    0.72650    0.72650   1.00
O2       0.72650    0.66180    0.72650   1.00
O2       0.72650    0.72650    0.66180   1.00
C1       0.75000    0.75000    0.85520   1.00
C1       0.75000    0.85520    0.75000   1.00
C1       0.64480    0.75000    0.75000   1.00
C1       0.85520    0.75000    0.75000   1.00
C1       0.75000    0.64480    0.75000   1.00
C1       0.75000    0.75000    0.64480   1.00
O1       0.25000    0.25000    0.75000   1.00
Zn1      0.21720    0.28280    0.78280   1.00
Zn1      0.28280    0.21720    0.78280   1.00
Zn1      0.28280    0.28280    0.71720   1.00
Zn1      0.21720    0.21720    0.71720   1.00
O2       0.22650    0.27350    0.83820   1.00
O2       0.22650    0.33820    0.77350   1.00
O2       0.16180    0.27350    0.77350   1.00
O2       0.27350    0.22650    0.83820   1.00
O2       0.33820    0.22650    0.77350   1.00
O2       0.27350    0.16180    0.77350   1.00
O2       0.27350    0.33820    0.72650   1.00
O2       0.33820    0.27350    0.72650   1.00
O2       0.27350    0.27350    0.66180   1.00
O2       0.16180    0.22650    0.72650   1.00
O2       0.22650    0.16180    0.72650   1.00
O2       0.22650    0.22650    0.66180   1.00
C1       0.25000    0.25000    0.85520   1.00
C1       0.25000    0.35520    0.75000   1.00
C1       0.14480    0.25000    0.75000   1.00
C1       0.35520    0.25000    0.75000   1.00
C1       0.25000    0.14480    0.75000   1.00
C1       0.25000    0.25000    0.64480   1.00
O1       0.25000    0.75000    0.25000   1.00
Zn1      0.21720    0.78280    0.28280   1.00
Zn1      0.28280    0.71720    0.28280   1.00
Zn1      0.28280    0.78280    0.21720   1.00
Zn1      0.21720    0.71720    0.21720   1.00
O2       0.22650    0.77350    0.33820   1.00
O2       0.22650    0.83820    0.27350   1.00
O2       0.16180    0.77350    0.27350   1.00
O2       0.27350    0.72650    0.33820   1.00
O2       0.33820    0.72650    0.27350   1.00
O2       0.27350    0.66180    0.27350   1.00
O2       0.27350    0.83820    0.22650   1.00
O2       0.33820    0.77350    0.22650   1.00
O2       0.27350    0.77350    0.16180   1.00
O2       0.16180    0.72650    0.22650   1.00
O2       0.22650    0.66180    0.22650   1.00
O2       0.22650    0.72650    0.16180   1.00
C1       0.25000    0.75000    0.35520   1.00
C1       0.25000    0.85520    0.25000   1.00
C1       0.14480    0.75000    0.25000   1.00
C1       0.35520    0.75000    0.25000   1.00
C1       0.25000    0.64480    0.25000   1.00
C1       0.25000    0.75000    0.14480   1.00
O1       0.75000    0.25000    0.25000   1.00
Zn1      0.71720    0.28280    0.28280   1.00
Zn1      0.78280    0.21720    0.28280   1.00
Zn1      0.78280    0.28280    0.21720   1.00
Zn1      0.71720    0.21720    0.21720   1.00
O2       0.72650    0.27350    0.33820   1.00
O2       0.72650    0.33820    0.27350   1.00
O2       0.66180    0.27350    0.27350   1.00
O2       0.77350    0.22650    0.33820   1.00
O2       0.83820    0.22650    0.27350   1.00
O2       0.77350    0.16180    0.27350   1.00
O2       0.77350    0.33820    0.22650   1.00
O2       0.83820    0.27350    0.22650   1.00
O2       0.77350    0.27350    0.16180   1.00
O2       0.66180    0.22650    0.22650   1.00
O2       0.72650    0.16180    0.22650   1.00
O2       0.72650    0.22650    0.16180   1.00
C1       0.75000    0.25000    0.35520   1.00
C1       0.75000    0.35520    0.25000   1.00
C1       0.64480    0.25000    0.25000   1.00
C1       0.85520    0.25000    0.25000   1.00
C1       0.75000    0.14480    0.25000   1.00
C1       0.75000    0.25000    0.14480   1.00
O1       0.25000    0.25000    0.25000   1.00
Zn1      0.28280    0.21720    0.21720   1.00
Zn1      0.21720    0.28280    0.21720   1.00
Zn1      0.21720    0.21720    0.28280   1.00
Zn1      0.28280    0.28280    0.28280   1.00
O2       0.27350    0.22650    0.16180   1.00
O2       0.27350    0.16180    0.22650   1.00
O2       0.33820    0.22650    0.22650   1.00
O2       0.22650    0.27350    0.16180   1.00
O2       0.16180    0.27350    0.22650   1.00
O2       0.22650    0.33820    0.22650   1.00
O2       0.22650    0.16180    0.27350   1.00
O2       0.16180    0.22650    0.27350   1.00
O2       0.22650    0.22650    0.33820   1.00
O2       0.33820    0.27350    0.27350   1.00
O2       0.27350    0.33820    0.27350   1.00
O2       0.27350    0.27350    0.33820   1.00
C1       0.25000    0.25000    0.14480   1.00
C1       0.25000    0.14480    0.25000   1.00
C1       0.35520    0.25000    0.25000   1.00
C1       0.14480    0.25000    0.25000   1.00
C1       0.25000    0.35520    0.25000   1.00
C1       0.25000    0.25000    0.35520   1.00
O1       0.75000    0.75000    0.25000   1.00
Zn1      0.78280    0.71720    0.21720   1.00
Zn1      0.71720    0.78280    0.21720   1.00
Zn1      0.71720    0.71720    0.28280   1.00
Zn1      0.78280    0.78280    0.28280   1.00
O2       0.77350    0.72650    0.16180   1.00
O2       0.77350    0.66180    0.22650   1.00
O2       0.83820    0.72650    0.22650   1.00
O2       0.72650    0.77350    0.16180   1.00
O2       0.66180    0.77350    0.22650   1.00
O2       0.72650    0.83820    0.22650   1.00
O2       0.72650    0.66180    0.27350   1.00
O2       0.66180    0.72650    0.27350   1.00
O2       0.72650    0.72650    0.33820   1.00
O2       0.83820    0.77350    0.27350   1.00
O2       0.77350    0.83820    0.27350   1.00
O2       0.77350    0.77350    0.33820   1.00
C1       0.75000    0.75000    0.14480   1.00
C1       0.75000    0.64480    0.25000   1.00
C1       0.85520    0.75000    0.25000   1.00
C1       0.64480    0.75000    0.25000   1.00
C1       0.75000    0.85520    0.25000   1.00
C1       0.75000    0.75000    0.35520   1.00
O1       0.75000    0.25000    0.75000   1.00
Zn1      0.78280    0.21720    0.71720   1.00
Zn1      0.71720    0.28280    0.71720   1.00
Zn1      0.71720    0.21720    0.78280   1.00
Zn1      0.78280    0.28280    0.78280   1.00
O2       0.77350    0.22650    0.66180   1.00
O2       0.77350    0.16180    0.72650   1.00
O2       0.83820    0.22650    0.72650   1.00
O2       0.72650    0.27350    0.66180   1.00
O2       0.66180    0.27350    0.72650   1.00
O2       0.72650    0.33820    0.72650   1.00
O2       0.72650    0.16180    0.77350   1.00
O2       0.66180    0.22650    0.77350   1.00
O2       0.72650    0.22650    0.83820   1.00
O2       0.83820    0.27350    0.77350   1.00
O2       0.77350    0.33820    0.77350   1.00
O2       0.77350    0.27350    0.83820   1.00
C1       0.75000    0.25000    0.64480   1.00
C1       0.75000    0.14480    0.75000   1.00
C1       0.85520    0.25000    0.75000   1.00
C1       0.64480    0.25000    0.75000   1.00
C1       0.75000    0.35520    0.75000   1.00
C1       0.75000    0.25000    0.85520   1.00
O1       0.25000    0.75000    0.75000   1.00
Zn1      0.28280    0.71720    0.71720   1.00
Zn1      0.21720    0.78280    0.71720   1.00
Zn1      0.21720    0.71720    0.78280   1.00
Zn1      0.28280    0.78280    0.78280   1.00
O2       0.27350    0.72650    0.66180   1.00
O2       0.27350    0.66180    0.72650   1.00
O2       0.33820    0.72650    0.72650   1.00
O2       0.22650    0.77350    0.66180   1.00
O2       0.16180    0.77350    0.72650   1.00
O2       0.22650    0.83820    0.72650   1.00
O2       0.22650    0.66180    0.77350   1.00
O2       0.16180    0.72650    0.77350   1.00
O2       0.22650    0.72650    0.83820   1.00
O2       0.33820    0.77350    0.77350   1.00
O2       0.27350    0.83820    0.77350   1.00
O2       0.27350    0.77350    0.83820   1.00
C1       0.25000    0.75000    0.64480   1.00
C1       0.25000    0.64480    0.75000   1.00
C1       0.35520    0.75000    0.75000   1.00
C1       0.14480    0.75000    0.75000   1.00
C1       0.25000    0.85520    0.75000   1.00
C1       0.25000    0.75000    0.85520   1.00
C4       0.75008    0.75018    0.97915   1.00
C4       0.74992    0.74982    1.02085   1.00
C3a      0.74019    0.78436    0.95746   1.00
C3       0.78137    0.76546    1.04232   1.00
C3       0.76021    0.71655    0.95768   1.00
C3a      0.71824    0.73363    1.04254   1.00
C2       0.75008    0.74997    0.89488   1.00
C2       0.75007    0.74996    1.10512   1.00
C3       0.74027    0.78368    0.91595   1.00
C3       0.78135    0.76562    1.08363   1.00
C3       0.76008    0.71646    0.91637   1.00
C3       0.71879    0.73403    1.08405   1.00
C5       0.72880    0.82190    0.97772   1.00
H1       0.80595    0.77801    1.02691   1.00
H1       0.73254    0.80968    0.89979   1.00
H1       0.80594    0.77810    1.09901   1.00
H1       0.76781    0.68998    0.90099   1.00
H1       0.69455    0.72187    1.10021   1.00
C5       0.68307    0.71623    1.02228   1.00
H1       0.76789    0.69004    0.97309   1.00
H2       0.65780    0.71577    1.04256   1.00
H2       0.67418    0.73487    0.99731   1.00
H2       0.71183    0.84064    0.95744   1.00
H2       0.70912    0.81563    1.00269   1.00
N1       0.69133    0.67664    1.00857   1.00
C6       0.69841    0.64535    1.03073   1.00
C6       0.69214    0.66463    0.97154   1.00
C6       0.70433    0.61305    1.00759   1.00
C6       0.70033    0.62531    0.96995   1.00
H3       0.69958    0.64588    1.06197   1.00
H3       0.68737    0.68335    0.94700   1.00
H3       0.71080    0.58382    1.01713   1.00
H3       0.70311    0.60756    0.94425   1.00
N1       0.76331    0.84299    0.99143   1.00
C6       0.77261    0.85062    1.02846   1.00
C6       0.79096    0.85925    0.96927   1.00
C6       0.80688    0.87157    1.03005   1.00
C6       0.81856    0.87705    0.99241   1.00
H3       0.75571    0.84128    1.05300   1.00
H3       0.79138    0.85803    0.93803   1.00
H3       0.82173    0.88169    1.05575   1.00
H3       0.84429    0.89234    0.98287   1.00
C4       0.75018    0.97915    0.75008   1.00
C4       0.74982    1.02085    0.74992   1.00
C3a      0.78436    0.95746    0.74019   1.00
C3       0.76546    1.04232    0.78137   1.00
C3       0.71655    0.95768    0.76021   1.00
C3a      0.73363    1.04254    0.71824   1.00
C2       0.74997    0.89488    0.75008   1.00
C2       0.74996    1.10512    0.75007   1.00
C3       0.78368    0.91595    0.74027   1.00
C3       0.76562    1.08363    0.78135   1.00
C3       0.71646    0.91637    0.76008   1.00
C3       0.73403    1.08405    0.71879   1.00
C5       0.82190    0.97772    0.72880   1.00
H1       0.77801    1.02691    0.80595   1.00
H1       0.80968    0.89979    0.73254   1.00
H1       0.77810    1.09901    0.80594   1.00
H1       0.68998    0.90099    0.76781   1.00
H1       0.72187    1.10021    0.69455   1.00
C5       0.71623    1.02228    0.68307   1.00
H1       0.69004    0.97309    0.76789   1.00
H2       0.71577    1.04256    0.65780   1.00
H2       0.73487    0.99731    0.67418   1.00
H2       0.84064    0.95744    0.71183   1.00
H2       0.81563    1.00269    0.70912   1.00
N1       0.67664    1.00857    0.69133   1.00
C6       0.64535    1.03073    0.69841   1.00
C6       0.66463    0.97154    0.69214   1.00
C6       0.61305    1.00759    0.70433   1.00
C6       0.62531    0.96995    0.70033   1.00
H3       0.64588    1.06197    0.69958   1.00
H3       0.68335    0.94700    0.68737   1.00
H3       0.58382    1.01713    0.71080   1.00
H3       0.60756    0.94425    0.70311   1.00
N1       0.84299    0.99143    0.76331   1.00
C6       0.85062    1.02846    0.77261   1.00
C6       0.85925    0.96927    0.79096   1.00
C6       0.87157    1.03005    0.80688   1.00
C6       0.87705    0.99241    0.81856   1.00
H3       0.84128    1.05300    0.75571   1.00
H3       0.85803    0.93803    0.79138   1.00
H3       0.88169    1.05575    0.82173   1.00
H3       0.89234    0.98287    0.84429   1.00
C4       0.52085    0.75008    0.74982   1.00
C4       0.47915    0.74992    0.75018   1.00
C3a      0.54254    0.74019    0.71564   1.00
C3       0.45768    0.78137    0.73454   1.00
C3       0.54232    0.76021    0.78345   1.00
C3a      0.45746    0.71824    0.76637   1.00
C2       0.60512    0.75008    0.75003   1.00
C2       0.39488    0.75007    0.75004   1.00
C3       0.58405    0.74027    0.71632   1.00
C3       0.41637    0.78135    0.73438   1.00
C3       0.58363    0.76008    0.78354   1.00
C3       0.41595    0.71879    0.76597   1.00
C5       0.52228    0.72880    0.67810   1.00
H1       0.47309    0.80595    0.72199   1.00
H1       0.60021    0.73254    0.69032   1.00
H1       0.40099    0.80594    0.72190   1.00
H1       0.59901    0.76781    0.81002   1.00
H1       0.39979    0.69455    0.77813   1.00
C5       0.47772    0.68307    0.78377   1.00
H1       0.52691    0.76789    0.80996   1.00
H2       0.45744    0.65780    0.78423   1.00
H2       0.50269    0.67418    0.76513   1.00
H2       0.54256    0.71183    0.65936   1.00
H2       0.49731    0.70912    0.68437   1.00
N1       0.49143    0.69133    0.82336   1.00
C6       0.46927    0.69841    0.85465   1.00
C6       0.52846    0.69214    0.83537   1.00
C6       0.49241    0.70433    0.88695   1.00
C6       0.53005    0.70033    0.87469   1.00
H3       0.43803    0.69958    0.85412   1.00
H3       0.55300    0.68737    0.81665   1.00
H3       0.48287    0.71080    0.91618   1.00
H3       0.55575    0.70311    0.89244   1.00
N1       0.50857    0.76331    0.65701   1.00
C6       0.47154    0.77261    0.64938   1.00
C6       0.53073    0.79096    0.64075   1.00
C6       0.46995    0.80688    0.62843   1.00
C6       0.50759    0.81856    0.62295   1.00
H3       0.44700    0.75571    0.65872   1.00
H3       0.56197    0.79138    0.64197   1.00
H3       0.44425    0.82173    0.61831   1.00
H3       0.51713    0.84429    0.60766   1.00
C4       0.97915    0.75008    0.75018   1.00
C4       1.02085    0.74992    0.74982   1.00
C3a      0.95746    0.74019    0.78436   1.00
C3       1.04232    0.78137    0.76546   1.00
C3       0.95768    0.76021    0.71655   1.00
C3a      1.04254    0.71824    0.73363   1.00
C2       0.89488    0.75008    0.74997   1.00
C2       1.10512    0.75007    0.74996   1.00
C3       0.91595    0.74027    0.78368   1.00
C3       1.08363    0.78135    0.76562   1.00
C3       0.91637    0.76008    0.71646   1.00
C3       1.08405    0.71879    0.73403   1.00
C5       0.97772    0.72880    0.82190   1.00
H1       1.02691    0.80595    0.77801   1.00
H1       0.89979    0.73254    0.80968   1.00
H1       1.09901    0.80594    0.77810   1.00
H1       0.90099    0.76781    0.68998   1.00
H1       1.10021    0.69455    0.72187   1.00
C5       1.02228    0.68307    0.71623   1.00
H1       0.97309    0.76789    0.69004   1.00
H2       1.04256    0.65780    0.71577   1.00
H2       0.99731    0.67418    0.73487   1.00
H2       0.95744    0.71183    0.84064   1.00
H2       1.00269    0.70912    0.81563   1.00
N1       1.00857    0.69133    0.67664   1.00
C6       1.03073    0.69841    0.64535   1.00
C6       0.97154    0.69214    0.66463   1.00
C6       1.00759    0.70433    0.61305   1.00
C6       0.96995    0.70033    0.62531   1.00
H3       1.06197    0.69958    0.64588   1.00
H3       0.94700    0.68737    0.68335   1.00
H3       1.01713    0.71080    0.58382   1.00
H3       0.94425    0.70311    0.60756   1.00
N1       0.99143    0.76331    0.84299   1.00
C6       1.02846    0.77261    0.85062   1.00
C6       0.96927    0.79096    0.85925   1.00
C6       1.03005    0.80688    0.87157   1.00
C6       0.99241    0.81856    0.87705   1.00
H3       1.05300    0.75571    0.84128   1.00
H3       0.93803    0.79138    0.85803   1.00
H3       1.05575    0.82173    0.88169   1.00
H3       0.98287    0.84429    0.89234   1.00
C4       0.74982    0.52085    0.75008   1.00
C4       0.75018    0.47915    0.74992   1.00
C3a      0.71564    0.54254    0.74019   1.00
C3       0.73454    0.45768    0.78137   1.00
C3       0.78345    0.54232    0.76021   1.00
C3a      0.76637    0.45746    0.71824   1.00
C2       0.75003    0.60512    0.75008   1.00
C2       0.75004    0.39488    0.75007   1.00
C3       0.71632    0.58405    0.74027   1.00
C3       0.73438    0.41637    0.78135   1.00
C3       0.78354    0.58363    0.76008   1.00
C3       0.76597    0.41595    0.71879   1.00
C5       0.67810    0.52228    0.72880   1.00
H1       0.72199    0.47309    0.80595   1.00
H1       0.69032    0.60021    0.73254   1.00
H1       0.72190    0.40099    0.80594   1.00
H1       0.81002    0.59901    0.76781   1.00
H1       0.77813    0.39979    0.69455   1.00
C5       0.78377    0.47772    0.68307   1.00
H1       0.80996    0.52691    0.76789   1.00
H2       0.78423    0.45744    0.65780   1.00
H2       0.76513    0.50269    0.67418   1.00
H2       0.65936    0.54256    0.71183   1.00
H2       0.68437    0.49731    0.70912   1.00
N1       0.82336    0.49143    0.69133   1.00
C6       0.85465    0.46927    0.69841   1.00
C6       0.83537    0.52846    0.69214   1.00
C6       0.88695    0.49241    0.70433   1.00
C6       0.87469    0.53005    0.70033   1.00
H3       0.85412    0.43803    0.69958   1.00
H3       0.81665    0.55300    0.68737   1.00
H3       0.91618    0.48287    0.71080   1.00
H3       0.89244    0.55575    0.70311   1.00
N1       0.65701    0.50857    0.76331   1.00
C6       0.64938    0.47154    0.77261   1.00
C6       0.64075    0.53073    0.79096   1.00
C6       0.62843    0.46995    0.80688   1.00
C6       0.62295    0.50759    0.81856   1.00
H3       0.65872    0.44700    0.75571   1.00
H3       0.64197    0.56197    0.79138   1.00
H3       0.61831    0.44425    0.82173   1.00
H3       0.60766    0.51713    0.84429   1.00
C4       0.75008    0.74982    0.52085   1.00
C4       0.74992    0.75018    0.47915   1.00
C3a      0.74019    0.71564    0.54254   1.00
C3       0.78137    0.73454    0.45768   1.00
C3       0.76021    0.78345    0.54232   1.00
C3a      0.71824    0.76637    0.45746   1.00
C2       0.75008    0.75003    0.60512   1.00
C2       0.75007    0.75004    0.39488   1.00
C3       0.74027    0.71632    0.58405   1.00
C3       0.78135    0.73438    0.41637   1.00
C3       0.76008    0.78354    0.58363   1.00
C3       0.71879    0.76597    0.41595   1.00
C5       0.72880    0.67810    0.52228   1.00
H1       0.80595    0.72199    0.47309   1.00
H1       0.73254    0.69032    0.60021   1.00
H1       0.80594    0.72190    0.40099   1.00
H1       0.76781    0.81002    0.59901   1.00
H1       0.69455    0.77813    0.39979   1.00
C5       0.68307    0.78377    0.47772   1.00
H1       0.76789    0.80996    0.52691   1.00
H2       0.65780    0.78423    0.45744   1.00
H2       0.67418    0.76513    0.50269   1.00
H2       0.71183    0.65936    0.54256   1.00
H2       0.70912    0.68437    0.49731   1.00
N1       0.69133    0.82336    0.49143   1.00
C6       0.69841    0.85465    0.46927   1.00
C6       0.69214    0.83537    0.52846   1.00
C6       0.70433    0.88695    0.49241   1.00
C6       0.70033    0.87469    0.53005   1.00
H3       0.69958    0.85412    0.43803   1.00
H3       0.68737    0.81665    0.55300   1.00
H3       0.71080    0.91618    0.48287   1.00
H3       0.70311    0.89244    0.55575   1.00
N1       0.76331    0.65701    0.50857   1.00
C6       0.77261    0.64938    0.47154   1.00
C6       0.79096    0.64075    0.53073   1.00
C6       0.80688    0.62843    0.46995   1.00
C6       0.81856    0.62295    0.50759   1.00
H3       0.75571    0.65872    0.44700   1.00
H3       0.79138    0.64197    0.56197   1.00
H3       0.82173    0.61831    0.44425   1.00
H3       0.84429    0.60766    0.51713   1.00
C4       0.25008    0.25018    0.97915   1.00
C4       0.24992    0.24982    1.02085   1.00
C3a      0.24019    0.28436    0.95746   1.00
C3       0.28137    0.26546    1.04232   1.00
C3       0.26021    0.21655    0.95768   1.00
C3a      0.21824    0.23363    1.04254   1.00
C2       0.25008    0.24997    0.89488   1.00
C2       0.25007    0.24996    1.10512   1.00
C3       0.24027    0.28368    0.91595   1.00
C3       0.28135    0.26562    1.08363   1.00
C3       0.26008    0.21646    0.91637   1.00
C3       0.21879    0.23403    1.08405   1.00
C5       0.22880    0.32190    0.97772   1.00
H1       0.30595    0.27801    1.02691   1.00
H1       0.23254    0.30968    0.89979   1.00
H1       0.30594    0.27810    1.09901   1.00
H1       0.26781    0.18998    0.90099   1.00
H1       0.19455    0.22187    1.10021   1.00
C5       0.18307    0.21623    1.02228   1.00
H1       0.26789    0.19004    0.97309   1.00
H2       0.15780    0.21577    1.04256   1.00
H2       0.17418    0.23487    0.99731   1.00
H2       0.21183    0.34064    0.95744   1.00
H2       0.20912    0.31563    1.00269   1.00
N1       0.19133    0.17664    1.00857   1.00
C6       0.19841    0.14535    1.03073   1.00
C6       0.19214    0.16463    0.97154   1.00
C6       0.20433    0.11305    1.00759   1.00
C6       0.20033    0.12531    0.96995   1.00
H3       0.19958    0.14588    1.06197   1.00
H3       0.18737    0.18335    0.94700   1.00
H3       0.21080    0.08382    1.01713   1.00
H3       0.20311    0.10756    0.94425   1.00
N1       0.26331    0.34299    0.99143   1.00
C6       0.27261    0.35062    1.02846   1.00
C6       0.29096    0.35925    0.96927   1.00
C6       0.30688    0.37157    1.03005   1.00
C6       0.31856    0.37705    0.99241   1.00
H3       0.25571    0.34128    1.05300   1.00
H3       0.29138    0.35803    0.93803   1.00
H3       0.32173    0.38169    1.05575   1.00
H3       0.34429    0.39234    0.98287   1.00
C4       0.25018    0.47915    0.75008   1.00
C4       0.24982    0.52085    0.74992   1.00
C3a      0.28436    0.45746    0.74019   1.00
C3       0.26546    0.54232    0.78137   1.00
C3       0.21655    0.45768    0.76021   1.00
C3a      0.23363    0.54254    0.71824   1.00
C2       0.24997    0.39488    0.75008   1.00
C2       0.24996    0.60512    0.75007   1.00
C3       0.28368    0.41595    0.74027   1.00
C3       0.26562    0.58363    0.78135   1.00
C3       0.21646    0.41637    0.76008   1.00
C3       0.23403    0.58405    0.71879   1.00
C5       0.32190    0.47772    0.72880   1.00
H1       0.27801    0.52691    0.80595   1.00
H1       0.30968    0.39979    0.73254   1.00
H1       0.27810    0.59901    0.80594   1.00
H1       0.18998    0.40099    0.76781   1.00
H1       0.22187    0.60021    0.69455   1.00
C5       0.21623    0.52228    0.68307   1.00
H1       0.19004    0.47309    0.76789   1.00
H2       0.21577    0.54256    0.65780   1.00
H2       0.23487    0.49731    0.67418   1.00
H2       0.34064    0.45744    0.71183   1.00
H2       0.31563    0.50269    0.70912   1.00
N1       0.17664    0.50857    0.69133   1.00
C6       0.14535    0.53073    0.69841   1.00
C6       0.16463    0.47154    0.69214   1.00
C6       0.11305    0.50759    0.70433   1.00
C6       0.12531    0.46995    0.70033   1.00
H3       0.14588    0.56197    0.69958   1.00
H3       0.18335    0.44700    0.68737   1.00
H3       0.08382    0.51713    0.71080   1.00
H3       0.10756    0.44425    0.70311   1.00
N1       0.34299    0.49143    0.76331   1.00
C6       0.35062    0.52846    0.77261   1.00
C6       0.35925    0.46927    0.79096   1.00
C6       0.37157    0.53005    0.80688   1.00
C6       0.37705    0.49241    0.81856   1.00
H3       0.34128    0.55300    0.75571   1.00
H3       0.35803    0.43803    0.79138   1.00
H3       0.38169    0.55575    0.82173   1.00
H3       0.39234    0.48287    0.84429   1.00
C4       0.02085    0.25008    0.74982   1.00
C4       -0.02085   0.24992    0.75018   1.00
C3a      0.04254    0.24019    0.71564   1.00
C3       -0.04232   0.28137    0.73454   1.00
C3       0.04232    0.26021    0.78345   1.00
C3a      -0.04254   0.21824    0.76637   1.00
C2       0.10512    0.25008    0.75003   1.00
C2       -0.10512   0.25007    0.75004   1.00
C3       0.08405    0.24027    0.71632   1.00
C3       -0.08363   0.28135    0.73438   1.00
C3       0.08363    0.26008    0.78354   1.00
C3       -0.08405   0.21879    0.76597   1.00
C5       0.02228    0.22880    0.67810   1.00
H1       -0.02691   0.30595    0.72199   1.00
H1       0.10021    0.23254    0.69032   1.00
H1       -0.09901   0.30594    0.72190   1.00
H1       0.09901    0.26781    0.81002   1.00
H1       -0.10021   0.19455    0.77813   1.00
C5       -0.02228   0.18307    0.78377   1.00
H1       0.02691    0.26789    0.80996   1.00
H2       -0.04256   0.15780    0.78423   1.00
H2       0.00269    0.17418    0.76513   1.00
H2       0.04256    0.21183    0.65936   1.00
H2       -0.00269   0.20912    0.68437   1.00
N1       -0.00857   0.19133    0.82336   1.00
C6       -0.03073   0.19841    0.85465   1.00
C6       0.02846    0.19214    0.83537   1.00
C6       -0.00759   0.20433    0.88695   1.00
C6       0.03005    0.20033    0.87469   1.00
H3       -0.06197   0.19958    0.85412   1.00
H3       0.05300    0.18737    0.81665   1.00
H3       -0.01713   0.21080    0.91618   1.00
H3       0.05575    0.20311    0.89244   1.00
N1       0.00857    0.26331    0.65701   1.00
C6       -0.02846   0.27261    0.64938   1.00
C6       0.03073    0.29096    0.64075   1.00
C6       -0.03005   0.30688    0.62843   1.00
C6       0.00759    0.31856    0.62295   1.00
H3       -0.05300   0.25571    0.65872   1.00
H3       0.06197    0.29138    0.64197   1.00
H3       -0.05575   0.32173    0.61831   1.00
H3       0.01713    0.34429    0.60766   1.00
C4       0.47915    0.25008    0.75018   1.00
C4       0.52085    0.24992    0.74982   1.00
C3a      0.45746    0.24019    0.78436   1.00
C3       0.54232    0.28137    0.76546   1.00
C3       0.45768    0.26021    0.71655   1.00
C3a      0.54254    0.21824    0.73363   1.00
C2       0.39488    0.25008    0.74997   1.00
C2       0.60512    0.25007    0.74996   1.00
C3       0.41595    0.24027    0.78368   1.00
C3       0.58363    0.28135    0.76562   1.00
C3       0.41637    0.26008    0.71646   1.00
C3       0.58405    0.21879    0.73403   1.00
C5       0.47772    0.22880    0.82190   1.00
H1       0.52691    0.30595    0.77801   1.00
H1       0.39979    0.23254    0.80968   1.00
H1       0.59901    0.30594    0.77810   1.00
H1       0.40099    0.26781    0.68998   1.00
H1       0.60021    0.19455    0.72187   1.00
C5       0.52228    0.18307    0.71623   1.00
H1       0.47309    0.26789    0.69004   1.00
H2       0.54256    0.15780    0.71577   1.00
H2       0.49731    0.17418    0.73487   1.00
H2       0.45744    0.21183    0.84064   1.00
H2       0.50269    0.20912    0.81563   1.00
N1       0.50857    0.19133    0.67664   1.00
C6       0.53073    0.19841    0.64535   1.00
C6       0.47154    0.19214    0.66463   1.00
C6       0.50759    0.20433    0.61305   1.00
C6       0.46995    0.20033    0.62531   1.00
H3       0.56197    0.19958    0.64588   1.00
H3       0.44700    0.18737    0.68335   1.00
H3       0.51713    0.21080    0.58382   1.00
H3       0.44425    0.20311    0.60756   1.00
N1       0.49143    0.26331    0.84299   1.00
C6       0.52846    0.27261    0.85062   1.00
C6       0.46927    0.29096    0.85925   1.00
C6       0.53005    0.30688    0.87157   1.00
C6       0.49241    0.31856    0.87705   1.00
H3       0.55300    0.25571    0.84128   1.00
H3       0.43803    0.29138    0.85803   1.00
H3       0.55575    0.32173    0.88169   1.00
H3       0.48287    0.34429    0.89234   1.00
C4       0.24982    0.02085    0.75008   1.00
C4       0.25018    -0.02085   0.74992   1.00
C3a      0.21564    0.04254    0.74019   1.00
C3       0.23454    -0.04232   0.78137   1.00
C3       0.28345    0.04232    0.76021   1.00
C3a      0.26637    -0.04254   0.71824   1.00
C2       0.25003    0.10512    0.75008   1.00
C2       0.25004    -0.10512   0.75007   1.00
C3       0.21632    0.08405    0.74027   1.00
C3       0.23438    -0.08363   0.78135   1.00
C3       0.28354    0.08363    0.76008   1.00
C3       0.26597    -0.08405   0.71879   1.00
C5       0.17810    0.02228    0.72880   1.00
H1       0.22199    -0.02691   0.80595   1.00
H1       0.19032    0.10021    0.73254   1.00
H1       0.22190    -0.09901   0.80594   1.00
H1       0.31002    0.09901    0.76781   1.00
H1       0.27813    -0.10021   0.69455   1.00
C5       0.28377    -0.02228   0.68307   1.00
H1       0.30996    0.02691    0.76789   1.00
H2       0.28423    -0.04256   0.65780   1.00
H2       0.26513    0.00269    0.67418   1.00
H2       0.15936    0.04256    0.71183   1.00
H2       0.18437    -0.00269   0.70912   1.00
N1       0.32336    -0.00857   0.69133   1.00
C6       0.35465    -0.03073   0.69841   1.00
C6       0.33537    0.02846    0.69214   1.00
C6       0.38695    -0.00759   0.70433   1.00
C6       0.37469    0.03005    0.70033   1.00
H3       0.35412    -0.06197   0.69958   1.00
H3       0.31665    0.05300    0.68737   1.00
H3       0.41618    -0.01713   0.71080   1.00
H3       0.39244    0.05575    0.70311   1.00
N1       0.15701    0.00857    0.76331   1.00
C6       0.14938    -0.02846   0.77261   1.00
C6       0.14075    0.03073    0.79096   1.00
C6       0.12843    -0.03005   0.80688   1.00
C6       0.12295    0.00759    0.81856   1.00
H3       0.15872    -0.05300   0.75571   1.00
H3       0.14197    0.06197    0.79138   1.00
H3       0.11831    -0.05575   0.82173   1.00
H3       0.10766    0.01713    0.84429   1.00
C4       0.25008    0.24982    0.52085   1.00
C4       0.24992    0.25018    0.47915   1.00
C3a      0.24019    0.21564    0.54254   1.00
C3       0.28137    0.23454    0.45768   1.00
C3       0.26021    0.28345    0.54232   1.00
C3a      0.21824    0.26637    0.45746   1.00
C2       0.25008    0.25003    0.60512   1.00
C2       0.25007    0.25004    0.39488   1.00
C3       0.24027    0.21632    0.58405   1.00
C3       0.28135    0.23438    0.41637   1.00
C3       0.26008    0.28354    0.58363   1.00
C3       0.21879    0.26597    0.41595   1.00
C5       0.22880    0.17810    0.52228   1.00
H1       0.30595    0.22199    0.47309   1.00
H1       0.23254    0.19032    0.60021   1.00
H1       0.30594    0.22190    0.40099   1.00
H1       0.26781    0.31002    0.59901   1.00
H1       0.19455    0.27813    0.39979   1.00
C5       0.18307    0.28377    0.47772   1.00
H1       0.26789    0.30996    0.52691   1.00
H2       0.15780    0.28423    0.45744   1.00
H2       0.17418    0.26513    0.50269   1.00
H2       0.21183    0.15936    0.54256   1.00
H2       0.20912    0.18437    0.49731   1.00
N1       0.19133    0.32336    0.49143   1.00
C6       0.19841    0.35465    0.46927   1.00
C6       0.19214    0.33537    0.52846   1.00
C6       0.20433    0.38695    0.49241   1.00
C6       0.20033    0.37469    0.53005   1.00
H3       0.19958    0.35412    0.43803   1.00
H3       0.18737    0.31665    0.55300   1.00
H3       0.21080    0.41618    0.48287   1.00
H3       0.20311    0.39244    0.55575   1.00
N1       0.26331    0.15701    0.50857   1.00
C6       0.27261    0.14938    0.47154   1.00
C6       0.29096    0.14075    0.53073   1.00
C6       0.30688    0.12843    0.46995   1.00
C6       0.31856    0.12295    0.50759   1.00
H3       0.25571    0.15872    0.44700   1.00
H3       0.29138    0.14197    0.56197   1.00
H3       0.32173    0.11831    0.44425   1.00
H3       0.34429    0.10766    0.51713   1.00
C4       0.25008    0.75018    0.47915   1.00
C4       0.24992    0.74982    0.52085   1.00
C3a      0.24019    0.78436    0.45746   1.00
C3       0.28137    0.76546    0.54232   1.00
C3       0.26021    0.71655    0.45768   1.00
C3a      0.21824    0.73363    0.54254   1.00
C2       0.25008    0.74997    0.39488   1.00
C2       0.25007    0.74996    0.60512   1.00
C3       0.24027    0.78368    0.41595   1.00
C3       0.28135    0.76562    0.58363   1.00
C3       0.26008    0.71646    0.41637   1.00
C3       0.21879    0.73403    0.58405   1.00
C5       0.22880    0.82190    0.47772   1.00
H1       0.30595    0.77801    0.52691   1.00
H1       0.23254    0.80968    0.39979   1.00
H1       0.30594    0.77810    0.59901   1.00
H1       0.26781    0.68998    0.40099   1.00
H1       0.19455    0.72187    0.60021   1.00
C5       0.18307    0.71623    0.52228   1.00
H1       0.26789    0.69004    0.47309   1.00
H2       0.15780    0.71577    0.54256   1.00
H2       0.17418    0.73487    0.49731   1.00
H2       0.21183    0.84064    0.45744   1.00
H2       0.20912    0.81563    0.50269   1.00
N1       0.19133    0.67664    0.50857   1.00
C6       0.19841    0.64535    0.53073   1.00
C6       0.19214    0.66463    0.47154   1.00
C6       0.20433    0.61305    0.50759   1.00
C6       0.20033    0.62531    0.46995   1.00
H3       0.19958    0.64588    0.56197   1.00
H3       0.18737    0.68335    0.44700   1.00
H3       0.21080    0.58382    0.51713   1.00
H3       0.20311    0.60756    0.44425   1.00
N1       0.26331    0.84299    0.49143   1.00
C6       0.27261    0.85062    0.52846   1.00
C6       0.29096    0.85925    0.46927   1.00
C6       0.30688    0.87157    0.53005   1.00
C6       0.31856    0.87705    0.49241   1.00
H3       0.25571    0.84128    0.55300   1.00
H3       0.29138    0.85803    0.43803   1.00
H3       0.32173    0.88169    0.55575   1.00
H3       0.34429    0.89234    0.48287   1.00
C4       0.25018    0.97915    0.25008   1.00
C4       0.24982    1.02085    0.24992   1.00
C3a      0.28436    0.95746    0.24019   1.00
C3       0.26546    1.04232    0.28137   1.00
C3       0.21655    0.95768    0.26021   1.00
C3a      0.23363    1.04254    0.21824   1.00
C2       0.24997    0.89488    0.25008   1.00
C2       0.24996    1.10512    0.25007   1.00
C3       0.28368    0.91595    0.24027   1.00
C3       0.26562    1.08363    0.28135   1.00
C3       0.21646    0.91637    0.26008   1.00
C3       0.23403    1.08405    0.21879   1.00
C5       0.32190    0.97772    0.22880   1.00
H1       0.27801    1.02691    0.30595   1.00
H1       0.30968    0.89979    0.23254   1.00
H1       0.27810    1.09901    0.30594   1.00
H1       0.18998    0.90099    0.26781   1.00
H1       0.22187    1.10021    0.19455   1.00
C5       0.21623    1.02228    0.18307   1.00
H1       0.19004    0.97309    0.26789   1.00
H2       0.21577    1.04256    0.15780   1.00
H2       0.23487    0.99731    0.17418   1.00
H2       0.34064    0.95744    0.21183   1.00
H2       0.31563    1.00269    0.20912   1.00
N1       0.17664    1.00857    0.19133   1.00
C6       0.14535    1.03073    0.19841   1.00
C6       0.16463    0.97154    0.19214   1.00
C6       0.11305    1.00759    0.20433   1.00
C6       0.12531    0.96995    0.20033   1.00
H3       0.14588    1.06197    0.19958   1.00
H3       0.18335    0.94700    0.18737   1.00
H3       0.08382    1.01713    0.21080   1.00
H3       0.10756    0.94425    0.20311   1.00
N1       0.34299    0.99143    0.26331   1.00
C6       0.35062    1.02846    0.27261   1.00
C6       0.35925    0.96927    0.29096   1.00
C6       0.37157    1.03005    0.30688   1.00
C6       0.37705    0.99241    0.31856   1.00
H3       0.34128    1.05300    0.25571   1.00
H3       0.35803    0.93803    0.29138   1.00
H3       0.38169    1.05575    0.32173   1.00
H3       0.39234    0.98287    0.34429   1.00
C4       0.02085    0.75008    0.24982   1.00
C4       -0.02085   0.74992    0.25018   1.00
C3a      0.04254    0.74019    0.21564   1.00
C3       -0.04232   0.78137    0.23454   1.00
C3       0.04232    0.76021    0.28345   1.00
C3a      -0.04254   0.71824    0.26637   1.00
C2       0.10512    0.75008    0.25003   1.00
C2       -0.10512   0.75007    0.25004   1.00
C3       0.08405    0.74027    0.21632   1.00
C3       -0.08363   0.78135    0.23438   1.00
C3       0.08363    0.76008    0.28354   1.00
C3       -0.08405   0.71879    0.26597   1.00
C5       0.02228    0.72880    0.17810   1.00
H1       -0.02691   0.80595    0.22199   1.00
H1       0.10021    0.73254    0.19032   1.00
H1       -0.09901   0.80594    0.22190   1.00
H1       0.09901    0.76781    0.31002   1.00
H1       -0.10021   0.69455    0.27813   1.00
C5       -0.02228   0.68307    0.28377   1.00
H1       0.02691    0.76789    0.30996   1.00
H2       -0.04256   0.65780    0.28423   1.00
H2       0.00269    0.67418    0.26513   1.00
H2       0.04256    0.71183    0.15936   1.00
H2       -0.00269   0.70912    0.18437   1.00
N1       -0.00857   0.69133    0.32336   1.00
C6       -0.03073   0.69841    0.35465   1.00
C6       0.02846    0.69214    0.33537   1.00
C6       -0.00759   0.70433    0.38695   1.00
C6       0.03005    0.70033    0.37469   1.00
H3       -0.06197   0.69958    0.35412   1.00
H3       0.05300    0.68737    0.31665   1.00
H3       -0.01713   0.71080    0.41618   1.00
H3       0.05575    0.70311    0.39244   1.00
N1       0.00857    0.76331    0.15701   1.00
C6       -0.02846   0.77261    0.14938   1.00
C6       0.03073    0.79096    0.14075   1.00
C6       -0.03005   0.80688    0.12843   1.00
C6       0.00759    0.81856    0.12295   1.00
H3       -0.05300   0.75571    0.15872   1.00
H3       0.06197    0.79138    0.14197   1.00
H3       -0.05575   0.82173    0.11831   1.00
H3       0.01713    0.84429    0.10766   1.00
C4       0.47915    0.75008    0.25018   1.00
C4       0.52085    0.74992    0.24982   1.00
C3a      0.45746    0.74019    0.28436   1.00
C3       0.54232    0.78137    0.26546   1.00
C3       0.45768    0.76021    0.21655   1.00
C3a      0.54254    0.71824    0.23363   1.00
C2       0.39488    0.75008    0.24997   1.00
C2       0.60512    0.75007    0.24996   1.00
C3       0.41595    0.74027    0.28368   1.00
C3       0.58363    0.78135    0.26562   1.00
C3       0.41637    0.76008    0.21646   1.00
C3       0.58405    0.71879    0.23403   1.00
C5       0.47772    0.72880    0.32190   1.00
H1       0.52691    0.80595    0.27801   1.00
H1       0.39979    0.73254    0.30968   1.00
H1       0.59901    0.80594    0.27810   1.00
H1       0.40099    0.76781    0.18998   1.00
H1       0.60021    0.69455    0.22187   1.00
C5       0.52228    0.68307    0.21623   1.00
H1       0.47309    0.76789    0.19004   1.00
H2       0.54256    0.65780    0.21577   1.00
H2       0.49731    0.67418    0.23487   1.00
H2       0.45744    0.71183    0.34064   1.00
H2       0.50269    0.70912    0.31563   1.00
N1       0.50857    0.69133    0.17664   1.00
C6       0.53073    0.69841    0.14535   1.00
C6       0.47154    0.69214    0.16463   1.00
C6       0.50759    0.70433    0.11305   1.00
C6       0.46995    0.70033    0.12531   1.00
H3       0.56197    0.69958    0.14588   1.00
H3       0.44700    0.68737    0.18335   1.00
H3       0.51713    0.71080    0.08382   1.00
H3       0.44425    0.70311    0.10756   1.00
N1       0.49143    0.76331    0.34299   1.00
C6       0.52846    0.77261    0.35062   1.00
C6       0.46927    0.79096    0.35925   1.00
C6       0.53005    0.80688    0.37157   1.00
C6       0.49241    0.81856    0.37705   1.00
H3       0.55300    0.75571    0.34128   1.00
H3       0.43803    0.79138    0.35803   1.00
H3       0.55575    0.82173    0.38169   1.00
H3       0.48287    0.84429    0.39234   1.00
C4       0.24982    0.52085    0.25008   1.00
C4       0.25018    0.47915    0.24992   1.00
C3a      0.21564    0.54254    0.24019   1.00
C3       0.23454    0.45768    0.28137   1.00
C3       0.28345    0.54232    0.26021   1.00
C3a      0.26637    0.45746    0.21824   1.00
C2       0.25003    0.60512    0.25008   1.00
C2       0.25004    0.39488    0.25007   1.00
C3       0.21632    0.58405    0.24027   1.00
C3       0.23438    0.41637    0.28135   1.00
C3       0.28354    0.58363    0.26008   1.00
C3       0.26597    0.41595    0.21879   1.00
C5       0.17810    0.52228    0.22880   1.00
H1       0.22199    0.47309    0.30595   1.00
H1       0.19032    0.60021    0.23254   1.00
H1       0.22190    0.40099    0.30594   1.00
H1       0.31002    0.59901    0.26781   1.00
H1       0.27813    0.39979    0.19455   1.00
C5       0.28377    0.47772    0.18307   1.00
H1       0.30996    0.52691    0.26789   1.00
H2       0.28423    0.45744    0.15780   1.00
H2       0.26513    0.50269    0.17418   1.00
H2       0.15936    0.54256    0.21183   1.00
H2       0.18437    0.49731    0.20912   1.00
N1       0.32336    0.49143    0.19133   1.00
C6       0.35465    0.46927    0.19841   1.00
C6       0.33537    0.52846    0.19214   1.00
C6       0.38695    0.49241    0.20433   1.00
C6       0.37469    0.53005    0.20033   1.00
H3       0.35412    0.43803    0.19958   1.00
H3       0.31665    0.55300    0.18737   1.00
H3       0.41618    0.48287    0.21080   1.00
H3       0.39244    0.55575    0.20311   1.00
N1       0.15701    0.50857    0.26331   1.00
C6       0.14938    0.47154    0.27261   1.00
C6       0.14075    0.53073    0.29096   1.00
C6       0.12843    0.46995    0.30688   1.00
C6       0.12295    0.50759    0.31856   1.00
H3       0.15872    0.44700    0.25571   1.00
H3       0.14197    0.56197    0.29138   1.00
H3       0.11831    0.44425    0.32173   1.00
H3       0.10766    0.51713    0.34429   1.00
C4       0.25008    0.74982    0.02085   1.00
C4       0.24992    0.75018    -0.02085   1.00
C3a      0.24019    0.71564    0.04254   1.00
C3       0.28137    0.73454    -0.04232   1.00
C3       0.26021    0.78345    0.04232   1.00
C3a      0.21824    0.76637    -0.04254   1.00
C2       0.25008    0.75003    0.10512   1.00
C2       0.25007    0.75004    -0.10512   1.00
C3       0.24027    0.71632    0.08405   1.00
C3       0.28135    0.73438    -0.08363   1.00
C3       0.26008    0.78354    0.08363   1.00
C3       0.21879    0.76597    -0.08405   1.00
C5       0.22880    0.67810    0.02228   1.00
H1       0.30595    0.72199    -0.02691   1.00
H1       0.23254    0.69032    0.10021   1.00
H1       0.30594    0.72190    -0.09901   1.00
H1       0.26781    0.81002    0.09901   1.00
H1       0.19455    0.77813    -0.10021   1.00
C5       0.18307    0.78377    -0.02228   1.00
H1       0.26789    0.80996    0.02691   1.00
H2       0.15780    0.78423    -0.04256   1.00
H2       0.17418    0.76513    0.00269   1.00
H2       0.21183    0.65936    0.04256   1.00
H2       0.20912    0.68437    -0.00269   1.00
N1       0.19133    0.82336    -0.00857   1.00
C6       0.19841    0.85465    -0.03073   1.00
C6       0.19214    0.83537    0.02846   1.00
C6       0.20433    0.88695    -0.00759   1.00
C6       0.20033    0.87469    0.03005   1.00
H3       0.19958    0.85412    -0.06197   1.00
H3       0.18737    0.81665    0.05300   1.00
H3       0.21080    0.91618    -0.01713   1.00
H3       0.20311    0.89244    0.05575   1.00
N1       0.26331    0.65701    0.00857   1.00
C6       0.27261    0.64938    -0.02846   1.00
C6       0.29096    0.64075    0.03073   1.00
C6       0.30688    0.62843    -0.03005   1.00
C6       0.31856    0.62295    0.00759   1.00
H3       0.25571    0.65872    -0.05300   1.00
H3       0.29138    0.64197    0.06197   1.00
H3       0.32173    0.61831    -0.05575   1.00
H3       0.34429    0.60766    0.01713   1.00
C4       0.75008    0.25018    0.47915   1.00
C4       0.74992    0.24982    0.52085   1.00
C3a      0.74019    0.28436    0.45746   1.00
C3       0.78137    0.26546    0.54232   1.00
C3       0.76021    0.21655    0.45768   1.00
C3a      0.71824    0.23363    0.54254   1.00
C2       0.75008    0.24997    0.39488   1.00
C2       0.75007    0.24996    0.60512   1.00
C3       0.74027    0.28368    0.41595   1.00
C3       0.78135    0.26562    0.58363   1.00
C3       0.76008    0.21646    0.41637   1.00
C3       0.71879    0.23403    0.58405   1.00
C5       0.72880    0.32190    0.47772   1.00
H1       0.80595    0.27801    0.52691   1.00
H1       0.73254    0.30968    0.39979   1.00
H1       0.80594    0.27810    0.59901   1.00
H1       0.76781    0.18998    0.40099   1.00
H1       0.69455    0.22187    0.60021   1.00
C5       0.68307    0.21623    0.52228   1.00
H1       0.76789    0.19004    0.47309   1.00
H2       0.65780    0.21577    0.54256   1.00
H2       0.67418    0.23487    0.49731   1.00
H2       0.71183    0.34064    0.45744   1.00
H2       0.70912    0.31563    0.50269   1.00
N1       0.69133    0.17664    0.50857   1.00
C6       0.69841    0.14535    0.53073   1.00
C6       0.69214    0.16463    0.47154   1.00
C6       0.70433    0.11305    0.50759   1.00
C6       0.70033    0.12531    0.46995   1.00
H3       0.69958    0.14588    0.56197   1.00
H3       0.68737    0.18335    0.44700   1.00
H3       0.71080    0.08382    0.51713   1.00
H3       0.70311    0.10756    0.44425   1.00
N1       0.76331    0.34299    0.49143   1.00
C6       0.77261    0.35062    0.52846   1.00
C6       0.79096    0.35925    0.46927   1.00
C6       0.80688    0.37157    0.53005   1.00
C6       0.81856    0.37705    0.49241   1.00
H3       0.75571    0.34128    0.55300   1.00
H3       0.79138    0.35803    0.43803   1.00
H3       0.82173    0.38169    0.55575   1.00
H3       0.84429    0.39234    0.48287   1.00
C4       0.75018    0.47915    0.25008   1.00
C4       0.74982    0.52085    0.24992   1.00
C3a      0.78436    0.45746    0.24019   1.00
C3       0.76546    0.54232    0.28137   1.00
C3       0.71655    0.45768    0.26021   1.00
C3a      0.73363    0.54254    0.21824   1.00
C2       0.74997    0.39488    0.25008   1.00
C2       0.74996    0.60512    0.25007   1.00
C3       0.78368    0.41595    0.24027   1.00
C3       0.76562    0.58363    0.28135   1.00
C3       0.71646    0.41637    0.26008   1.00
C3       0.73403    0.58405    0.21879   1.00
C5       0.82190    0.47772    0.22880   1.00
H1       0.77801    0.52691    0.30595   1.00
H1       0.80968    0.39979    0.23254   1.00
H1       0.77810    0.59901    0.30594   1.00
H1       0.68998    0.40099    0.26781   1.00
H1       0.72187    0.60021    0.19455   1.00
C5       0.71623    0.52228    0.18307   1.00
H1       0.69004    0.47309    0.26789   1.00
H2       0.71577    0.54256    0.15780   1.00
H2       0.73487    0.49731    0.17418   1.00
H2       0.84064    0.45744    0.21183   1.00
H2       0.81563    0.50269    0.20912   1.00
N1       0.67664    0.50857    0.19133   1.00
C6       0.64535    0.53073    0.19841   1.00
C6       0.66463    0.47154    0.19214   1.00
C6       0.61305    0.50759    0.20433   1.00
C6       0.62531    0.46995    0.20033   1.00
H3       0.64588    0.56197    0.19958   1.00
H3       0.68335    0.44700    0.18737   1.00
H3       0.58382    0.51713    0.21080   1.00
H3       0.60756    0.44425    0.20311   1.00
N1       0.84299    0.49143    0.26331   1.00
C6       0.85062    0.52846    0.27261   1.00
C6       0.85925    0.46927    0.29096   1.00
C6       0.87157    0.53005    0.30688   1.00
C6       0.87705    0.49241    0.31856   1.00
H3       0.84128    0.55300    0.25571   1.00
H3       0.85803    0.43803    0.29138   1.00
H3       0.88169    0.55575    0.32173   1.00
H3       0.89234    0.48287    0.34429   1.00
C4       0.52085    0.25008    0.24982   1.00
C4       0.47915    0.24992    0.25018   1.00
C3a      0.54254    0.24019    0.21564   1.00
C3       0.45768    0.28137    0.23454   1.00
C3       0.54232    0.26021    0.28345   1.00
C3a      0.45746    0.21824    0.26637   1.00
C2       0.60512    0.25008    0.25003   1.00
C2       0.39488    0.25007    0.25004   1.00
C3       0.58405    0.24027    0.21632   1.00
C3       0.41637    0.28135    0.23438   1.00
C3       0.58363    0.26008    0.28354   1.00
C3       0.41595    0.21879    0.26597   1.00
C5       0.52228    0.22880    0.17810   1.00
H1       0.47309    0.30595    0.22199   1.00
H1       0.60021    0.23254    0.19032   1.00
H1       0.40099    0.30594    0.22190   1.00
H1       0.59901    0.26781    0.31002   1.00
H1       0.39979    0.19455    0.27813   1.00
C5       0.47772    0.18307    0.28377   1.00
H1       0.52691    0.26789    0.30996   1.00
H2       0.45744    0.15780    0.28423   1.00
H2       0.50269    0.17418    0.26513   1.00
H2       0.54256    0.21183    0.15936   1.00
H2       0.49731    0.20912    0.18437   1.00
N1       0.49143    0.19133    0.32336   1.00
C6       0.46927    0.19841    0.35465   1.00
C6       0.52846    0.19214    0.33537   1.00
C6       0.49241    0.20433    0.38695   1.00
C6       0.53005    0.20033    0.37469   1.00
H3       0.43803    0.19958    0.35412   1.00
H3       0.55300    0.18737    0.31665   1.00
H3       0.48287    0.21080    0.41618   1.00
H3       0.55575    0.20311    0.39244   1.00
N1       0.50857    0.26331    0.15701   1.00
C6       0.47154    0.27261    0.14938   1.00
C6       0.53073    0.29096    0.14075   1.00
C6       0.46995    0.30688    0.12843   1.00
C6       0.50759    0.31856    0.12295   1.00
H3       0.44700    0.25571    0.15872   1.00
H3       0.56197    0.29138    0.14197   1.00
H3       0.44425    0.32173    0.11831   1.00
H3       0.51713    0.34429    0.10766   1.00
C4       0.97915    0.25008    0.25018   1.00
C4       1.02085    0.24992    0.24982   1.00
C3a      0.95746    0.24019    0.28436   1.00
C3       1.04232    0.28137    0.26546   1.00
C3       0.95768    0.26021    0.21655   1.00
C3a      1.04254    0.21824    0.23363   1.00
C2       0.89488    0.25008    0.24997   1.00
C2       1.10512    0.25007    0.24996   1.00
C3       0.91595    0.24027    0.28368   1.00
C3       1.08363    0.28135    0.26562   1.00
C3       0.91637    0.26008    0.21646   1.00
C3       1.08405    0.21879    0.23403   1.00
C5       0.97772    0.22880    0.32190   1.00
H1       1.02691    0.30595    0.27801   1.00
H1       0.89979    0.23254    0.30968   1.00
H1       1.09901    0.30594    0.27810   1.00
H1       0.90099    0.26781    0.18998   1.00
H1       1.10021    0.19455    0.22187   1.00
C5       1.02228    0.18307    0.21623   1.00
H1       0.97309    0.26789    0.19004   1.00
H2       1.04256    0.15780    0.21577   1.00
H2       0.99731    0.17418    0.23487   1.00
H2       0.95744    0.21183    0.34064   1.00
H2       1.00269    0.20912    0.31563   1.00
N1       1.00857    0.19133    0.17664   1.00
C6       1.03073    0.19841    0.14535   1.00
C6       0.97154    0.19214    0.16463   1.00
C6       1.00759    0.20433    0.11305   1.00
C6       0.96995    0.20033    0.12531   1.00
H3       1.06197    0.19958    0.14588   1.00
H3       0.94700    0.18737    0.18335   1.00
H3       1.01713    0.21080    0.08382   1.00
H3       0.94425    0.20311    0.10756   1.00
N1       0.99143    0.26331    0.34299   1.00
C6       1.02846    0.27261    0.35062   1.00
C6       0.96927    0.29096    0.35925   1.00
C6       1.03005    0.30688    0.37157   1.00
C6       0.99241    0.31856    0.37705   1.00
H3       1.05300    0.25571    0.34128   1.00
H3       0.93803    0.29138    0.35803   1.00
H3       1.05575    0.32173    0.38169   1.00
H3       0.98287    0.34429    0.39234   1.00
C4       0.74982    0.02085    0.25008   1.00
C4       0.75018    -0.02085   0.24992   1.00
C3a      0.71564    0.04254    0.24019   1.00
C3       0.73454    -0.04232   0.28137   1.00
C3       0.78345    0.04232    0.26021   1.00
C3a      0.76637    -0.04254   0.21824   1.00
C2       0.75003    0.10512    0.25008   1.00
C2       0.75004    -0.10512   0.25007   1.00
C3       0.71632    0.08405    0.24027   1.00
C3       0.73438    -0.08363   0.28135   1.00
C3       0.78354    0.08363    0.26008   1.00
C3       0.76597    -0.08405   0.21879   1.00
C5       0.67810    0.02228    0.22880   1.00
H1       0.72199    -0.02691   0.30595   1.00
H1       0.69032    0.10021    0.23254   1.00
H1       0.72190    -0.09901   0.30594   1.00
H1       0.81002    0.09901    0.26781   1.00
H1       0.77813    -0.10021   0.19455   1.00
C5       0.78377    -0.02228   0.18307   1.00
H1       0.80996    0.02691    0.26789   1.00
H2       0.78423    -0.04256   0.15780   1.00
H2       0.76513    0.00269    0.17418   1.00
H2       0.65936    0.04256    0.21183   1.00
H2       0.68437    -0.00269   0.20912   1.00
N1       0.82336    -0.00857   0.19133   1.00
C6       0.85465    -0.03073   0.19841   1.00
C6       0.83537    0.02846    0.19214   1.00
C6       0.88695    -0.00759   0.20433   1.00
C6       0.87469    0.03005    0.20033   1.00
H3       0.85412    -0.06197   0.19958   1.00
H3       0.81665    0.05300    0.18737   1.00
H3       0.91618    -0.01713   0.21080   1.00
H3       0.89244    0.05575    0.20311   1.00
N1       0.65701    0.00857    0.26331   1.00
C6       0.64938    -0.02846   0.27261   1.00
C6       0.64075    0.03073    0.29096   1.00
C6       0.62843    -0.03005   0.30688   1.00
C6       0.62295    0.00759    0.31856   1.00
H3       0.65872    -0.05300   0.25571   1.00
H3       0.64197    0.06197    0.29138   1.00
H3       0.61831    -0.05575   0.32173   1.00
H3       0.60766    0.01713    0.34429   1.00
C4       0.75008    0.24982    0.02085   1.00
C4       0.74992    0.25018    -0.02085   1.00
C3a      0.74019    0.21564    0.04254   1.00
C3       0.78137    0.23454    -0.04232   1.00
C3       0.76021    0.28345    0.04232   1.00
C3a      0.71824    0.26637    -0.04254   1.00
C2       0.75008    0.25003    0.10512   1.00
C2       0.75007    0.25004    -0.10512   1.00
C3       0.74027    0.21632    0.08405   1.00
C3       0.78135    0.23438    -0.08363   1.00
C3       0.76008    0.28354    0.08363   1.00
C3       0.71879    0.26597    -0.08405   1.00
C5       0.72880    0.17810    0.02228   1.00
H1       0.80595    0.22199    -0.02691   1.00
H1       0.73254    0.19032    0.10021   1.00
H1       0.80594    0.22190    -0.09901   1.00
H1       0.76781    0.31002    0.09901   1.00
H1       0.69455    0.27813    -0.10021   1.00
C5       0.68307    0.28377    -0.02228   1.00
H1       0.76789    0.30996    0.02691   1.00
H2       0.65780    0.28423    -0.04256   1.00
H2       0.67418    0.26513    0.00269   1.00
H2       0.71183    0.15936    0.04256   1.00
H2       0.70912    0.18437    -0.00269   1.00
N1       0.69133    0.32336    -0.00857   1.00
C6       0.69841    0.35465    -0.03073   1.00
C6       0.69214    0.33537    0.02846   1.00
C6       0.70433    0.38695    -0.00759   1.00
C6       0.70033    0.37469    0.03005   1.00
H3       0.69958    0.35412    -0.06197   1.00
H3       0.68737    0.31665    0.05300   1.00
H3       0.71080    0.41618    -0.01713   1.00
H3       0.70311    0.39244    0.05575   1.00
N1       0.76331    0.15701    0.00857   1.00
C6       0.77261    0.14938    -0.02846   1.00
C6       0.79096    0.14075    0.03073   1.00
C6       0.80688    0.12843    -0.03005   1.00
C6       0.81856    0.12295    0.00759   1.00
H3       0.75571    0.15872    -0.05300   1.00
H3       0.79138    0.14197    0.06197   1.00
H3       0.82173    0.11831    -0.05575   1.00
H3       0.84429    0.10766    0.01713   1.00
