data_IRMOF10_SG202_Ligand5_label_d.

_audit_creation_method             'generated by an auxiliary program of Tobunporous'

_symmetry_space_group_name_H-M     'P 1'
_symmetry_Int_Tables_number        1
_symmetry_cell_setting             triclinic

_cell_length_a                    34.2800
_cell_length_b                    34.2800
_cell_length_c                    34.2800
_cell_angle_alpha                 90.0000
_cell_angle_beta                  90.0000
_cell_angle_gamma                 90.0000

loop_
_atom_site_label
_atom_site_fract_x
_atom_site_fract_y
_atom_site_fract_z
_atom_site_occupancy
O1       0.75000    0.75000    0.75000   1.00
Zn1      0.71720    0.78280    0.78280   1.00
Zn1      0.78280    0.71720    0.78280   1.00
Zn1      0.78280    0.78280    0.71720   1.00
Zn1      0.71720    0.71720    0.71720   1.00
O2       0.72650    0.77350    0.83820   1.00
O2       0.72650    0.83820    0.77350   1.00
O2       0.66180    0.77350    0.77350   1.00
O2       0.77350    0.72650    0.83820   1.00
O2       0.83820    0.72650    0.77350   1.00
O2       0.77350    0.66180    0.77350   1.00
O2       0.77350    0.83820    0.72650   1.00
O2       0.83820    0.77350    0.72650   1.00
O2       0.77350    0.77350    0.66180   1.00
O2       0.66180    0.72650    0.72650   1.00
O2       0.72650    0.66180    0.72650   1.00
O2       0.72650    0.72650    0.66180   1.00
C1       0.75000    0.75000    0.85520   1.00
C1       0.75000    0.85520    0.75000   1.00
C1       0.64480    0.75000    0.75000   1.00
C1       0.85520    0.75000    0.75000   1.00
C1       0.75000    0.64480    0.75000   1.00
C1       0.75000    0.75000    0.64480   1.00
O1       0.25000    0.25000    0.75000   1.00
Zn1      0.21720    0.28280    0.78280   1.00
Zn1      0.28280    0.21720    0.78280   1.00
Zn1      0.28280    0.28280    0.71720   1.00
Zn1      0.21720    0.21720    0.71720   1.00
O2       0.22650    0.27350    0.83820   1.00
O2       0.22650    0.33820    0.77350   1.00
O2       0.16180    0.27350    0.77350   1.00
O2       0.27350    0.22650    0.83820   1.00
O2       0.33820    0.22650    0.77350   1.00
O2       0.27350    0.16180    0.77350   1.00
O2       0.27350    0.33820    0.72650   1.00
O2       0.33820    0.27350    0.72650   1.00
O2       0.27350    0.27350    0.66180   1.00
O2       0.16180    0.22650    0.72650   1.00
O2       0.22650    0.16180    0.72650   1.00
O2       0.22650    0.22650    0.66180   1.00
C1       0.25000    0.25000    0.85520   1.00
C1       0.25000    0.35520    0.75000   1.00
C1       0.14480    0.25000    0.75000   1.00
C1       0.35520    0.25000    0.75000   1.00
C1       0.25000    0.14480    0.75000   1.00
C1       0.25000    0.25000    0.64480   1.00
O1       0.25000    0.75000    0.25000   1.00
Zn1      0.21720    0.78280    0.28280   1.00
Zn1      0.28280    0.71720    0.28280   1.00
Zn1      0.28280    0.78280    0.21720   1.00
Zn1      0.21720    0.71720    0.21720   1.00
O2       0.22650    0.77350    0.33820   1.00
O2       0.22650    0.83820    0.27350   1.00
O2       0.16180    0.77350    0.27350   1.00
O2       0.27350    0.72650    0.33820   1.00
O2       0.33820    0.72650    0.27350   1.00
O2       0.27350    0.66180    0.27350   1.00
O2       0.27350    0.83820    0.22650   1.00
O2       0.33820    0.77350    0.22650   1.00
O2       0.27350    0.77350    0.16180   1.00
O2       0.16180    0.72650    0.22650   1.00
O2       0.22650    0.66180    0.22650   1.00
O2       0.22650    0.72650    0.16180   1.00
C1       0.25000    0.75000    0.35520   1.00
C1       0.25000    0.85520    0.25000   1.00
C1       0.14480    0.75000    0.25000   1.00
C1       0.35520    0.75000    0.25000   1.00
C1       0.25000    0.64480    0.25000   1.00
C1       0.25000    0.75000    0.14480   1.00
O1       0.75000    0.25000    0.25000   1.00
Zn1      0.71720    0.28280    0.28280   1.00
Zn1      0.78280    0.21720    0.28280   1.00
Zn1      0.78280    0.28280    0.21720   1.00
Zn1      0.71720    0.21720    0.21720   1.00
O2       0.72650    0.27350    0.33820   1.00
O2       0.72650    0.33820    0.27350   1.00
O2       0.66180    0.27350    0.27350   1.00
O2       0.77350    0.22650    0.33820   1.00
O2       0.83820    0.22650    0.27350   1.00
O2       0.77350    0.16180    0.27350   1.00
O2       0.77350    0.33820    0.22650   1.00
O2       0.83820    0.27350    0.22650   1.00
O2       0.77350    0.27350    0.16180   1.00
O2       0.66180    0.22650    0.22650   1.00
O2       0.72650    0.16180    0.22650   1.00
O2       0.72650    0.22650    0.16180   1.00
C1       0.75000    0.25000    0.35520   1.00
C1       0.75000    0.35520    0.25000   1.00
C1       0.64480    0.25000    0.25000   1.00
C1       0.85520    0.25000    0.25000   1.00
C1       0.75000    0.14480    0.25000   1.00
C1       0.75000    0.25000    0.14480   1.00
O1       0.25000    0.25000    0.25000   1.00
Zn1      0.28280    0.21720    0.21720   1.00
Zn1      0.21720    0.28280    0.21720   1.00
Zn1      0.21720    0.21720    0.28280   1.00
Zn1      0.28280    0.28280    0.28280   1.00
O2       0.27350    0.22650    0.16180   1.00
O2       0.27350    0.16180    0.22650   1.00
O2       0.33820    0.22650    0.22650   1.00
O2       0.22650    0.27350    0.16180   1.00
O2       0.16180    0.27350    0.22650   1.00
O2       0.22650    0.33820    0.22650   1.00
O2       0.22650    0.16180    0.27350   1.00
O2       0.16180    0.22650    0.27350   1.00
O2       0.22650    0.22650    0.33820   1.00
O2       0.33820    0.27350    0.27350   1.00
O2       0.27350    0.33820    0.27350   1.00
O2       0.27350    0.27350    0.33820   1.00
C1       0.25000    0.25000    0.14480   1.00
C1       0.25000    0.14480    0.25000   1.00
C1       0.35520    0.25000    0.25000   1.00
C1       0.14480    0.25000    0.25000   1.00
C1       0.25000    0.35520    0.25000   1.00
C1       0.25000    0.25000    0.35520   1.00
O1       0.75000    0.75000    0.25000   1.00
Zn1      0.78280    0.71720    0.21720   1.00
Zn1      0.71720    0.78280    0.21720   1.00
Zn1      0.71720    0.71720    0.28280   1.00
Zn1      0.78280    0.78280    0.28280   1.00
O2       0.77350    0.72650    0.16180   1.00
O2       0.77350    0.66180    0.22650   1.00
O2       0.83820    0.72650    0.22650   1.00
O2       0.72650    0.77350    0.16180   1.00
O2       0.66180    0.77350    0.22650   1.00
O2       0.72650    0.83820    0.22650   1.00
O2       0.72650    0.66180    0.27350   1.00
O2       0.66180    0.72650    0.27350   1.00
O2       0.72650    0.72650    0.33820   1.00
O2       0.83820    0.77350    0.27350   1.00
O2       0.77350    0.83820    0.27350   1.00
O2       0.77350    0.77350    0.33820   1.00
C1       0.75000    0.75000    0.14480   1.00
C1       0.75000    0.64480    0.25000   1.00
C1       0.85520    0.75000    0.25000   1.00
C1       0.64480    0.75000    0.25000   1.00
C1       0.75000    0.85520    0.25000   1.00
C1       0.75000    0.75000    0.35520   1.00
O1       0.75000    0.25000    0.75000   1.00
Zn1      0.78280    0.21720    0.71720   1.00
Zn1      0.71720    0.28280    0.71720   1.00
Zn1      0.71720    0.21720    0.78280   1.00
Zn1      0.78280    0.28280    0.78280   1.00
O2       0.77350    0.22650    0.66180   1.00
O2       0.77350    0.16180    0.72650   1.00
O2       0.83820    0.22650    0.72650   1.00
O2       0.72650    0.27350    0.66180   1.00
O2       0.66180    0.27350    0.72650   1.00
O2       0.72650    0.33820    0.72650   1.00
O2       0.72650    0.16180    0.77350   1.00
O2       0.66180    0.22650    0.77350   1.00
O2       0.72650    0.22650    0.83820   1.00
O2       0.83820    0.27350    0.77350   1.00
O2       0.77350    0.33820    0.77350   1.00
O2       0.77350    0.27350    0.83820   1.00
C1       0.75000    0.25000    0.64480   1.00
C1       0.75000    0.14480    0.75000   1.00
C1       0.85520    0.25000    0.75000   1.00
C1       0.64480    0.25000    0.75000   1.00
C1       0.75000    0.35520    0.75000   1.00
C1       0.75000    0.25000    0.85520   1.00
O1       0.25000    0.75000    0.75000   1.00
Zn1      0.28280    0.71720    0.71720   1.00
Zn1      0.21720    0.78280    0.71720   1.00
Zn1      0.21720    0.71720    0.78280   1.00
Zn1      0.28280    0.78280    0.78280   1.00
O2       0.27350    0.72650    0.66180   1.00
O2       0.27350    0.66180    0.72650   1.00
O2       0.33820    0.72650    0.72650   1.00
O2       0.22650    0.77350    0.66180   1.00
O2       0.16180    0.77350    0.72650   1.00
O2       0.22650    0.83820    0.72650   1.00
O2       0.22650    0.66180    0.77350   1.00
O2       0.16180    0.72650    0.77350   1.00
O2       0.22650    0.72650    0.83820   1.00
O2       0.33820    0.77350    0.77350   1.00
O2       0.27350    0.83820    0.77350   1.00
O2       0.27350    0.77350    0.83820   1.00
C1       0.25000    0.75000    0.64480   1.00
C1       0.25000    0.64480    0.75000   1.00
C1       0.35520    0.75000    0.75000   1.00
C1       0.14480    0.75000    0.75000   1.00
C1       0.25000    0.85520    0.75000   1.00
C1       0.25000    0.75000    0.85520   1.00
C5       0.76647    0.87594    1.13227   1.00
H2       0.73860    0.86964    1.14755   1.00
H2       0.75979    0.89946    1.11099   1.00
C5       0.79722    0.89004    1.16219   1.00
H2       0.79318    0.92157    1.16890   1.00
H2       0.82714    0.88547    1.15040   1.00
O_3      0.82069    0.75295    0.98000   1.00
C4       0.74958    0.74985    1.02100   1.00
C3c      0.74749    0.78471    1.04243   1.00
H1       0.74572    0.81231    1.02725   1.00
C3d      0.75130    0.71417    1.04135   1.00
C3       0.74820    0.78466    1.08354   1.00
O2       0.74126    0.81939    1.10248   1.00
C3       0.75276    0.71406    1.08227   1.00
H1       0.75548    0.68608    1.09657   1.00
C2       0.75111    0.74908    1.10439   1.00
C5       0.83992    0.71653    0.97879   1.00
H2       0.84682    0.70727    0.94838   1.00
H2       0.82185    0.69326    0.99266   1.00
C5       0.87794    0.72067    1.00122   1.00
H2       0.87113    0.73098    1.03129   1.00
H2       0.89590    0.74371    0.98691   1.00
C5       0.90015    0.68184    1.00254   1.00
H2       0.90681    0.67123    0.97260   1.00
H2       0.88280    0.65917    1.01803   1.00
H2       0.92825    0.68564    1.01830   1.00
C5       0.71961    0.66410    1.01105   1.00
C5       0.77702    0.83826    1.11070   1.00
H2       0.70397    0.68415    0.99088   1.00
H2       0.70084    0.65880    1.03712   1.00
H2       0.79270    0.84511    1.08300   1.00
H2       0.79693    0.81991    1.12895   1.00
H2       0.79428    0.87417    1.19055   1.00
H2       0.68370    0.63068    0.94250   1.00
H2       0.66426    0.61076    0.98766   1.00
C2       0.75198    0.74836    0.89605   1.00
C3       0.71592    0.74888    0.91597   1.00
O2       0.68190    0.73921    0.89674   1.00
C3       0.78674    0.75029    0.91826   1.00
H1       0.81477    0.75096    0.90385   1.00
C3a      0.71538    0.75027    0.95713   1.00
H1       0.68762    0.74840    0.97202   1.00
C3b      0.78612    0.75041    0.95922   1.00
C4       0.75028    0.75032    0.97900   1.00
O_3      0.75638    0.67928    1.02167   1.00
C5       0.66076    0.77322    0.88720   1.00
H2       0.65303    0.79021    0.91391   1.00
C5       0.62335    0.76005    0.86666   1.00
H2       0.67790    0.79238    0.86726   1.00
H2       0.60207    0.75039    0.88923   1.00
H2       0.63068    0.73377    0.84899   1.00
C5       0.60537    0.79210    0.84069   1.00
H2       0.60111    0.81912    0.85811   1.00
H2       0.57661    0.78261    0.82891   1.00
H2       0.62433    0.79859    0.81494   1.00
C5       0.72659    0.62550    0.99020   1.00
H2       0.73596    0.60346    1.01218   1.00
H2       0.75140    0.62942    0.96955   1.00
C5       0.69011    0.61149    0.96803   1.00
H2       0.69492    0.58150    0.95666   1.00
C5       0.87594    1.13227    0.76647   1.00
H2       0.86964    1.14755    0.73860   1.00
H2       0.89946    1.11099    0.75979   1.00
C5       0.89004    1.16219    0.79722   1.00
H2       0.92157    1.16890    0.79318   1.00
H2       0.88547    1.15040    0.82714   1.00
O_3      0.75295    0.98000    0.82069   1.00
C4       0.74985    1.02100    0.74958   1.00
C3c      0.78471    1.04243    0.74749   1.00
H1       0.81231    1.02725    0.74572   1.00
C3d      0.71417    1.04135    0.75130   1.00
C3       0.78466    1.08354    0.74820   1.00
O2       0.81939    1.10248    0.74126   1.00
C3       0.71406    1.08227    0.75276   1.00
H1       0.68608    1.09657    0.75548   1.00
C2       0.74908    1.10439    0.75111   1.00
C5       0.71653    0.97879    0.83992   1.00
H2       0.70727    0.94838    0.84682   1.00
H2       0.69326    0.99266    0.82185   1.00
C5       0.72067    1.00122    0.87794   1.00
H2       0.73098    1.03129    0.87113   1.00
H2       0.74371    0.98691    0.89590   1.00
C5       0.68184    1.00254    0.90015   1.00
H2       0.67123    0.97260    0.90681   1.00
H2       0.65917    1.01803    0.88280   1.00
H2       0.68564    1.01830    0.92825   1.00
C5       0.66410    1.01105    0.71961   1.00
C5       0.83826    1.11070    0.77702   1.00
H2       0.68415    0.99088    0.70397   1.00
H2       0.65880    1.03712    0.70084   1.00
H2       0.84511    1.08300    0.79270   1.00
H2       0.81991    1.12895    0.79693   1.00
H2       0.87417    1.19055    0.79428   1.00
H2       0.63068    0.94250    0.68370   1.00
H2       0.61076    0.98766    0.66426   1.00
C2       0.74836    0.89605    0.75198   1.00
C3       0.74888    0.91597    0.71592   1.00
O2       0.73921    0.89674    0.68190   1.00
C3       0.75029    0.91826    0.78674   1.00
H1       0.75096    0.90385    0.81477   1.00
C3a      0.75027    0.95713    0.71538   1.00
H1       0.74840    0.97202    0.68762   1.00
C3b      0.75041    0.95922    0.78612   1.00
C4       0.75032    0.97900    0.75028   1.00
O_3      0.67928    1.02167    0.75638   1.00
C5       0.77322    0.88720    0.66076   1.00
H2       0.79021    0.91391    0.65303   1.00
C5       0.76005    0.86666    0.62335   1.00
H2       0.79238    0.86726    0.67790   1.00
H2       0.75039    0.88923    0.60207   1.00
H2       0.73377    0.84899    0.63068   1.00
C5       0.79210    0.84069    0.60537   1.00
H2       0.81912    0.85811    0.60111   1.00
H2       0.78261    0.82891    0.57661   1.00
H2       0.79859    0.81494    0.62433   1.00
C5       0.62550    0.99020    0.72659   1.00
H2       0.60346    1.01218    0.73596   1.00
H2       0.62942    0.96955    0.75140   1.00
C5       0.61149    0.96803    0.69011   1.00
H2       0.58150    0.95666    0.69492   1.00
C5       0.36773    0.76647    0.62406   1.00
H2       0.35245    0.73860    0.63036   1.00
H2       0.38901    0.75979    0.60054   1.00
C5       0.33781    0.79722    0.60996   1.00
H2       0.33110    0.79318    0.57843   1.00
H2       0.34960    0.82714    0.61453   1.00
O_3      0.52000    0.82069    0.74705   1.00
C4       0.47900    0.74958    0.75015   1.00
C3c      0.45757    0.74749    0.71529   1.00
H1       0.47275    0.74572    0.68769   1.00
C3d      0.45865    0.75130    0.78583   1.00
C3       0.41646    0.74820    0.71534   1.00
O2       0.39752    0.74126    0.68061   1.00
C3       0.41773    0.75276    0.78594   1.00
H1       0.40343    0.75548    0.81392   1.00
C2       0.39561    0.75111    0.75092   1.00
C5       0.52121    0.83992    0.78347   1.00
H2       0.55162    0.84682    0.79273   1.00
H2       0.50734    0.82185    0.80674   1.00
C5       0.49878    0.87794    0.77933   1.00
H2       0.46871    0.87113    0.76902   1.00
H2       0.51309    0.89590    0.75629   1.00
C5       0.49746    0.90015    0.81816   1.00
H2       0.52740    0.90681    0.82877   1.00
H2       0.48197    0.88280    0.84083   1.00
H2       0.48170    0.92825    0.81436   1.00
C5       0.48895    0.71961    0.83590   1.00
C5       0.38930    0.77702    0.66174   1.00
H2       0.50912    0.70397    0.81585   1.00
H2       0.46288    0.70084    0.84120   1.00
H2       0.41700    0.79270    0.65489   1.00
H2       0.37105    0.79693    0.68009   1.00
H2       0.30945    0.79428    0.62583   1.00
H2       0.55750    0.68370    0.86932   1.00
H2       0.51234    0.66426    0.88924   1.00
C2       0.60395    0.75198    0.75164   1.00
C3       0.58403    0.71592    0.75112   1.00
O2       0.60326    0.68190    0.76079   1.00
C3       0.58174    0.78674    0.74971   1.00
H1       0.59615    0.81477    0.74904   1.00
C3a      0.54287    0.71538    0.74973   1.00
H1       0.52798    0.68762    0.75160   1.00
C3b      0.54078    0.78612    0.74959   1.00
C4       0.52100    0.75028    0.74968   1.00
O_3      0.47833    0.75638    0.82072   1.00
C5       0.61280    0.66076    0.72678   1.00
H2       0.58609    0.65303    0.70979   1.00
C5       0.63334    0.62335    0.73995   1.00
H2       0.63274    0.67790    0.70762   1.00
H2       0.61077    0.60207    0.74961   1.00
H2       0.65101    0.63068    0.76623   1.00
C5       0.65931    0.60537    0.70790   1.00
H2       0.64189    0.60111    0.68088   1.00
H2       0.67109    0.57661    0.71739   1.00
H2       0.68506    0.62433    0.70141   1.00
C5       0.50980    0.72659    0.87450   1.00
H2       0.48782    0.73596    0.89654   1.00
H2       0.53045    0.75140    0.87058   1.00
C5       0.53197    0.69011    0.88851   1.00
H2       0.54334    0.69492    0.91850   1.00
C5       1.13227    0.76647    0.87594   1.00
H2       1.14755    0.73860    0.86964   1.00
H2       1.11099    0.75979    0.89946   1.00
C5       1.16219    0.79722    0.89004   1.00
H2       1.16890    0.79318    0.92157   1.00
H2       1.15040    0.82714    0.88547   1.00
O_3      0.98000    0.82069    0.75295   1.00
C4       1.02100    0.74958    0.74985   1.00
C3c      1.04243    0.74749    0.78471   1.00
H1       1.02725    0.74572    0.81231   1.00
C3d      1.04135    0.75130    0.71417   1.00
C3       1.08354    0.74820    0.78466   1.00
O2       1.10248    0.74126    0.81939   1.00
C3       1.08227    0.75276    0.71406   1.00
H1       1.09657    0.75548    0.68608   1.00
C2       1.10439    0.75111    0.74908   1.00
C5       0.97879    0.83992    0.71653   1.00
H2       0.94838    0.84682    0.70727   1.00
H2       0.99266    0.82185    0.69326   1.00
C5       1.00122    0.87794    0.72067   1.00
H2       1.03129    0.87113    0.73098   1.00
H2       0.98691    0.89590    0.74371   1.00
C5       1.00254    0.90015    0.68184   1.00
H2       0.97260    0.90681    0.67123   1.00
H2       1.01803    0.88280    0.65917   1.00
H2       1.01830    0.92825    0.68564   1.00
C5       1.01105    0.71961    0.66410   1.00
C5       1.11070    0.77702    0.83826   1.00
H2       0.99088    0.70397    0.68415   1.00
H2       1.03712    0.70084    0.65880   1.00
H2       1.08300    0.79270    0.84511   1.00
H2       1.12895    0.79693    0.81991   1.00
H2       1.19055    0.79428    0.87417   1.00
H2       0.94250    0.68370    0.63068   1.00
H2       0.98766    0.66426    0.61076   1.00
C2       0.89605    0.75198    0.74836   1.00
C3       0.91597    0.71592    0.74888   1.00
O2       0.89674    0.68190    0.73921   1.00
C3       0.91826    0.78674    0.75029   1.00
H1       0.90385    0.81477    0.75096   1.00
C3a      0.95713    0.71538    0.75027   1.00
H1       0.97202    0.68762    0.74840   1.00
C3b      0.95922    0.78612    0.75041   1.00
C4       0.97900    0.75028    0.75032   1.00
O_3      1.02167    0.75638    0.67928   1.00
C5       0.88720    0.66076    0.77322   1.00
H2       0.91391    0.65303    0.79021   1.00
C5       0.86666    0.62335    0.76005   1.00
H2       0.86726    0.67790    0.79238   1.00
H2       0.88923    0.60207    0.75039   1.00
H2       0.84899    0.63068    0.73377   1.00
C5       0.84069    0.60537    0.79210   1.00
H2       0.85811    0.60111    0.81912   1.00
H2       0.82891    0.57661    0.78261   1.00
H2       0.81494    0.62433    0.79859   1.00
C5       0.99020    0.72659    0.62550   1.00
H2       1.01218    0.73596    0.60346   1.00
H2       0.96955    0.75140    0.62942   1.00
C5       0.96803    0.69011    0.61149   1.00
H2       0.95666    0.69492    0.58150   1.00
C5       0.62406    0.36773    0.76647   1.00
H2       0.63036    0.35245    0.73860   1.00
H2       0.60054    0.38901    0.75979   1.00
C5       0.60996    0.33781    0.79722   1.00
H2       0.57843    0.33110    0.79318   1.00
H2       0.61453    0.34960    0.82714   1.00
O_3      0.74705    0.52000    0.82069   1.00
C4       0.75015    0.47900    0.74958   1.00
C3c      0.71529    0.45757    0.74749   1.00
H1       0.68769    0.47275    0.74572   1.00
C3d      0.78583    0.45865    0.75130   1.00
C3       0.71534    0.41646    0.74820   1.00
O2       0.68061    0.39752    0.74126   1.00
C3       0.78594    0.41773    0.75276   1.00
H1       0.81392    0.40343    0.75548   1.00
C2       0.75092    0.39561    0.75111   1.00
C5       0.78347    0.52121    0.83992   1.00
H2       0.79273    0.55162    0.84682   1.00
H2       0.80674    0.50734    0.82185   1.00
C5       0.77933    0.49878    0.87794   1.00
H2       0.76902    0.46871    0.87113   1.00
H2       0.75629    0.51309    0.89590   1.00
C5       0.81816    0.49746    0.90015   1.00
H2       0.82877    0.52740    0.90681   1.00
H2       0.84083    0.48197    0.88280   1.00
H2       0.81436    0.48170    0.92825   1.00
C5       0.83590    0.48895    0.71961   1.00
C5       0.66174    0.38930    0.77702   1.00
H2       0.81585    0.50912    0.70397   1.00
H2       0.84120    0.46288    0.70084   1.00
H2       0.65489    0.41700    0.79270   1.00
H2       0.68009    0.37105    0.79693   1.00
H2       0.62583    0.30945    0.79428   1.00
H2       0.86932    0.55750    0.68370   1.00
H2       0.88924    0.51234    0.66426   1.00
C2       0.75164    0.60395    0.75198   1.00
C3       0.75112    0.58403    0.71592   1.00
O2       0.76079    0.60326    0.68190   1.00
C3       0.74971    0.58174    0.78674   1.00
H1       0.74904    0.59615    0.81477   1.00
C3a      0.74973    0.54287    0.71538   1.00
H1       0.75160    0.52798    0.68762   1.00
C3b      0.74959    0.54078    0.78612   1.00
C4       0.74968    0.52100    0.75028   1.00
O_3      0.82072    0.47833    0.75638   1.00
C5       0.72678    0.61280    0.66076   1.00
H2       0.70979    0.58609    0.65303   1.00
C5       0.73995    0.63334    0.62335   1.00
H2       0.70762    0.63274    0.67790   1.00
H2       0.74961    0.61077    0.60207   1.00
H2       0.76623    0.65101    0.63068   1.00
C5       0.70790    0.65931    0.60537   1.00
H2       0.68088    0.64189    0.60111   1.00
H2       0.71739    0.67109    0.57661   1.00
H2       0.70141    0.68506    0.62433   1.00
C5       0.87450    0.50980    0.72659   1.00
H2       0.89654    0.48782    0.73596   1.00
H2       0.87058    0.53045    0.75140   1.00
C5       0.88851    0.53197    0.69011   1.00
H2       0.91850    0.54334    0.69492   1.00
C5       0.76647    0.62406    0.36773   1.00
H2       0.73860    0.63036    0.35245   1.00
H2       0.75979    0.60054    0.38901   1.00
C5       0.79722    0.60996    0.33781   1.00
H2       0.79318    0.57843    0.33110   1.00
H2       0.82714    0.61453    0.34960   1.00
O_3      0.82069    0.74705    0.52000   1.00
C4       0.74958    0.75015    0.47900   1.00
C3c      0.74749    0.71529    0.45757   1.00
H1       0.74572    0.68769    0.47275   1.00
C3d      0.75130    0.78583    0.45865   1.00
C3       0.74820    0.71534    0.41646   1.00
O2       0.74126    0.68061    0.39752   1.00
C3       0.75276    0.78594    0.41773   1.00
H1       0.75548    0.81392    0.40343   1.00
C2       0.75111    0.75092    0.39561   1.00
C5       0.83992    0.78347    0.52121   1.00
H2       0.84682    0.79273    0.55162   1.00
H2       0.82185    0.80674    0.50734   1.00
C5       0.87794    0.77933    0.49878   1.00
H2       0.87113    0.76902    0.46871   1.00
H2       0.89590    0.75629    0.51309   1.00
C5       0.90015    0.81816    0.49746   1.00
H2       0.90681    0.82877    0.52740   1.00
H2       0.88280    0.84083    0.48197   1.00
H2       0.92825    0.81436    0.48170   1.00
C5       0.71961    0.83590    0.48895   1.00
C5       0.77702    0.66174    0.38930   1.00
H2       0.70397    0.81585    0.50912   1.00
H2       0.70084    0.84120    0.46288   1.00
H2       0.79270    0.65489    0.41700   1.00
H2       0.79693    0.68009    0.37105   1.00
H2       0.79428    0.62583    0.30945   1.00
H2       0.68370    0.86932    0.55750   1.00
H2       0.66426    0.88924    0.51234   1.00
C2       0.75198    0.75164    0.60395   1.00
C3       0.71592    0.75112    0.58403   1.00
O2       0.68190    0.76079    0.60326   1.00
C3       0.78674    0.74971    0.58174   1.00
H1       0.81477    0.74904    0.59615   1.00
C3a      0.71538    0.74973    0.54287   1.00
H1       0.68762    0.75160    0.52798   1.00
C3b      0.78612    0.74959    0.54078   1.00
C4       0.75028    0.74968    0.52100   1.00
O_3      0.75638    0.82072    0.47833   1.00
C5       0.66076    0.72678    0.61280   1.00
H2       0.65303    0.70979    0.58609   1.00
C5       0.62335    0.73995    0.63334   1.00
H2       0.67790    0.70762    0.63274   1.00
H2       0.60207    0.74961    0.61077   1.00
H2       0.63068    0.76623    0.65101   1.00
C5       0.60537    0.70790    0.65931   1.00
H2       0.60111    0.68088    0.64189   1.00
H2       0.57661    0.71739    0.67109   1.00
H2       0.62433    0.70141    0.68506   1.00
C5       0.72659    0.87450    0.50980   1.00
H2       0.73596    0.89654    0.48782   1.00
H2       0.75140    0.87058    0.53045   1.00
C5       0.69011    0.88851    0.53197   1.00
H2       0.69492    0.91850    0.54334   1.00
C5       0.26647    0.37594    1.13227   1.00
H2       0.23860    0.36964    1.14755   1.00
H2       0.25979    0.39946    1.11099   1.00
C5       0.29722    0.39004    1.16219   1.00
H2       0.29318    0.42157    1.16890   1.00
H2       0.32714    0.38547    1.15040   1.00
O_3      0.32069    0.25295    0.98000   1.00
C4       0.24958    0.24985    1.02100   1.00
C3c      0.24749    0.28471    1.04243   1.00
H1       0.24572    0.31231    1.02725   1.00
C3d      0.25130    0.21417    1.04135   1.00
C3       0.24820    0.28466    1.08354   1.00
O2       0.24126    0.31939    1.10248   1.00
C3       0.25276    0.21406    1.08227   1.00
H1       0.25548    0.18608    1.09657   1.00
C2       0.25111    0.24908    1.10439   1.00
C5       0.33992    0.21653    0.97879   1.00
H2       0.34682    0.20727    0.94838   1.00
H2       0.32185    0.19326    0.99266   1.00
C5       0.37794    0.22067    1.00122   1.00
H2       0.37113    0.23098    1.03129   1.00
H2       0.39590    0.24371    0.98691   1.00
C5       0.40015    0.18184    1.00254   1.00
H2       0.40681    0.17123    0.97260   1.00
H2       0.38280    0.15917    1.01803   1.00
H2       0.42825    0.18564    1.01830   1.00
C5       0.21961    0.16410    1.01105   1.00
C5       0.27702    0.33826    1.11070   1.00
H2       0.20397    0.18415    0.99088   1.00
H2       0.20084    0.15880    1.03712   1.00
H2       0.29270    0.34511    1.08300   1.00
H2       0.29693    0.31991    1.12895   1.00
H2       0.29428    0.37417    1.19055   1.00
H2       0.18370    0.13068    0.94250   1.00
H2       0.16426    0.11076    0.98766   1.00
C2       0.25198    0.24836    0.89605   1.00
C3       0.21592    0.24888    0.91597   1.00
O2       0.18190    0.23921    0.89674   1.00
C3       0.28674    0.25029    0.91826   1.00
H1       0.31477    0.25096    0.90385   1.00
C3a      0.21538    0.25027    0.95713   1.00
H1       0.18762    0.24840    0.97202   1.00
C3b      0.28612    0.25041    0.95922   1.00
C4       0.25028    0.25032    0.97900   1.00
O_3      0.25638    0.17928    1.02167   1.00
C5       0.16076    0.27322    0.88720   1.00
H2       0.15303    0.29021    0.91391   1.00
C5       0.12335    0.26005    0.86666   1.00
H2       0.17790    0.29238    0.86726   1.00
H2       0.10207    0.25039    0.88923   1.00
H2       0.13068    0.23377    0.84899   1.00
C5       0.10537    0.29210    0.84069   1.00
H2       0.10111    0.31912    0.85811   1.00
H2       0.07661    0.28261    0.82891   1.00
H2       0.12433    0.29859    0.81494   1.00
C5       0.22659    0.12550    0.99020   1.00
H2       0.23596    0.10346    1.01218   1.00
H2       0.25140    0.12942    0.96955   1.00
C5       0.19011    0.11149    0.96803   1.00
H2       0.19492    0.08150    0.95666   1.00
C5       0.37594    0.63227    0.76647   1.00
H2       0.36964    0.64755    0.73860   1.00
H2       0.39946    0.61099    0.75979   1.00
C5       0.39004    0.66219    0.79722   1.00
H2       0.42157    0.66890    0.79318   1.00
H2       0.38547    0.65040    0.82714   1.00
O_3      0.25295    0.48000    0.82069   1.00
C4       0.24985    0.52100    0.74958   1.00
C3c      0.28471    0.54243    0.74749   1.00
H1       0.31231    0.52725    0.74572   1.00
C3d      0.21417    0.54135    0.75130   1.00
C3       0.28466    0.58354    0.74820   1.00
O2       0.31939    0.60248    0.74126   1.00
C3       0.21406    0.58227    0.75276   1.00
H1       0.18608    0.59657    0.75548   1.00
C2       0.24908    0.60439    0.75111   1.00
C5       0.21653    0.47879    0.83992   1.00
H2       0.20727    0.44838    0.84682   1.00
H2       0.19326    0.49266    0.82185   1.00
C5       0.22067    0.50122    0.87794   1.00
H2       0.23098    0.53129    0.87113   1.00
H2       0.24371    0.48691    0.89590   1.00
C5       0.18184    0.50254    0.90015   1.00
H2       0.17123    0.47260    0.90681   1.00
H2       0.15917    0.51803    0.88280   1.00
H2       0.18564    0.51830    0.92825   1.00
C5       0.16410    0.51105    0.71961   1.00
C5       0.33826    0.61070    0.77702   1.00
H2       0.18415    0.49088    0.70397   1.00
H2       0.15880    0.53712    0.70084   1.00
H2       0.34511    0.58300    0.79270   1.00
H2       0.31991    0.62895    0.79693   1.00
H2       0.37417    0.69055    0.79428   1.00
H2       0.13068    0.44250    0.68370   1.00
H2       0.11076    0.48766    0.66426   1.00
C2       0.24836    0.39605    0.75198   1.00
C3       0.24888    0.41597    0.71592   1.00
O2       0.23921    0.39674    0.68190   1.00
C3       0.25029    0.41826    0.78674   1.00
H1       0.25096    0.40385    0.81477   1.00
C3a      0.25027    0.45713    0.71538   1.00
H1       0.24840    0.47202    0.68762   1.00
C3b      0.25041    0.45922    0.78612   1.00
C4       0.25032    0.47900    0.75028   1.00
O_3      0.17928    0.52167    0.75638   1.00
C5       0.27322    0.38720    0.66076   1.00
H2       0.29021    0.41391    0.65303   1.00
C5       0.26005    0.36666    0.62335   1.00
H2       0.29238    0.36726    0.67790   1.00
H2       0.25039    0.38923    0.60207   1.00
H2       0.23377    0.34899    0.63068   1.00
C5       0.29210    0.34069    0.60537   1.00
H2       0.31912    0.35811    0.60111   1.00
H2       0.28261    0.32891    0.57661   1.00
H2       0.29859    0.31494    0.62433   1.00
C5       0.12550    0.49020    0.72659   1.00
H2       0.10346    0.51218    0.73596   1.00
H2       0.12942    0.46955    0.75140   1.00
C5       0.11149    0.46803    0.69011   1.00
H2       0.08150    0.45666    0.69492   1.00
C5       -0.13227   0.26647    0.62406   1.00
H2       -0.14755   0.23860    0.63036   1.00
H2       -0.11099   0.25979    0.60054   1.00
C5       -0.16219   0.29722    0.60996   1.00
H2       -0.16890   0.29318    0.57843   1.00
H2       -0.15040   0.32714    0.61453   1.00
O_3      0.02000    0.32069    0.74705   1.00
C4       -0.02100   0.24958    0.75015   1.00
C3c      -0.04243   0.24749    0.71529   1.00
H1       -0.02725   0.24572    0.68769   1.00
C3d      -0.04135   0.25130    0.78583   1.00
C3       -0.08354   0.24820    0.71534   1.00
O2       -0.10248   0.24126    0.68061   1.00
C3       -0.08227   0.25276    0.78594   1.00
H1       -0.09657   0.25548    0.81392   1.00
C2       -0.10439   0.25111    0.75092   1.00
C5       0.02121    0.33992    0.78347   1.00
H2       0.05162    0.34682    0.79273   1.00
H2       0.00734    0.32185    0.80674   1.00
C5       -0.00122   0.37794    0.77933   1.00
H2       -0.03129   0.37113    0.76902   1.00
H2       0.01309    0.39590    0.75629   1.00
C5       -0.00254   0.40015    0.81816   1.00
H2       0.02740    0.40681    0.82877   1.00
H2       -0.01803   0.38280    0.84083   1.00
H2       -0.01830   0.42825    0.81436   1.00
C5       -0.01105   0.21961    0.83590   1.00
C5       -0.11070   0.27702    0.66174   1.00
H2       0.00912    0.20397    0.81585   1.00
H2       -0.03712   0.20084    0.84120   1.00
H2       -0.08300   0.29270    0.65489   1.00
H2       -0.12895   0.29693    0.68009   1.00
H2       -0.19055   0.29428    0.62583   1.00
H2       0.05750    0.18370    0.86932   1.00
H2       0.01234    0.16426    0.88924   1.00
C2       0.10395    0.25198    0.75164   1.00
C3       0.08403    0.21592    0.75112   1.00
O2       0.10326    0.18190    0.76079   1.00
C3       0.08174    0.28674    0.74971   1.00
H1       0.09615    0.31477    0.74904   1.00
C3a      0.04287    0.21538    0.74973   1.00
H1       0.02798    0.18762    0.75160   1.00
C3b      0.04078    0.28612    0.74959   1.00
C4       0.02100    0.25028    0.74968   1.00
O_3      -0.02167   0.25638    0.82072   1.00
C5       0.11280    0.16076    0.72678   1.00
H2       0.08609    0.15303    0.70979   1.00
C5       0.13334    0.12335    0.73995   1.00
H2       0.13274    0.17790    0.70762   1.00
H2       0.11077    0.10207    0.74961   1.00
H2       0.15101    0.13068    0.76623   1.00
C5       0.15931    0.10537    0.70790   1.00
H2       0.14189    0.10111    0.68088   1.00
H2       0.17109    0.07661    0.71739   1.00
H2       0.18506    0.12433    0.70141   1.00
C5       0.00980    0.22659    0.87450   1.00
H2       -0.01218   0.23596    0.89654   1.00
H2       0.03045    0.25140    0.87058   1.00
C5       0.03197    0.19011    0.88851   1.00
H2       0.04334    0.19492    0.91850   1.00
C5       0.63227    0.26647    0.87594   1.00
H2       0.64755    0.23860    0.86964   1.00
H2       0.61099    0.25979    0.89946   1.00
C5       0.66219    0.29722    0.89004   1.00
H2       0.66890    0.29318    0.92157   1.00
H2       0.65040    0.32714    0.88547   1.00
O_3      0.48000    0.32069    0.75295   1.00
C4       0.52100    0.24958    0.74985   1.00
C3c      0.54243    0.24749    0.78471   1.00
H1       0.52725    0.24572    0.81231   1.00
C3d      0.54135    0.25130    0.71417   1.00
C3       0.58354    0.24820    0.78466   1.00
O2       0.60248    0.24126    0.81939   1.00
C3       0.58227    0.25276    0.71406   1.00
H1       0.59657    0.25548    0.68608   1.00
C2       0.60439    0.25111    0.74908   1.00
C5       0.47879    0.33992    0.71653   1.00
H2       0.44838    0.34682    0.70727   1.00
H2       0.49266    0.32185    0.69326   1.00
C5       0.50122    0.37794    0.72067   1.00
H2       0.53129    0.37113    0.73098   1.00
H2       0.48691    0.39590    0.74371   1.00
C5       0.50254    0.40015    0.68184   1.00
H2       0.47260    0.40681    0.67123   1.00
H2       0.51803    0.38280    0.65917   1.00
H2       0.51830    0.42825    0.68564   1.00
C5       0.51105    0.21961    0.66410   1.00
C5       0.61070    0.27702    0.83826   1.00
H2       0.49088    0.20397    0.68415   1.00
H2       0.53712    0.20084    0.65880   1.00
H2       0.58300    0.29270    0.84511   1.00
H2       0.62895    0.29693    0.81991   1.00
H2       0.69055    0.29428    0.87417   1.00
H2       0.44250    0.18370    0.63068   1.00
H2       0.48766    0.16426    0.61076   1.00
C2       0.39605    0.25198    0.74836   1.00
C3       0.41597    0.21592    0.74888   1.00
O2       0.39674    0.18190    0.73921   1.00
C3       0.41826    0.28674    0.75029   1.00
H1       0.40385    0.31477    0.75096   1.00
C3a      0.45713    0.21538    0.75027   1.00
H1       0.47202    0.18762    0.74840   1.00
C3b      0.45922    0.28612    0.75041   1.00
C4       0.47900    0.25028    0.75032   1.00
O_3      0.52167    0.25638    0.67928   1.00
C5       0.38720    0.16076    0.77322   1.00
H2       0.41391    0.15303    0.79021   1.00
C5       0.36666    0.12335    0.76005   1.00
H2       0.36726    0.17790    0.79238   1.00
H2       0.38923    0.10207    0.75039   1.00
H2       0.34899    0.13068    0.73377   1.00
C5       0.34069    0.10537    0.79210   1.00
H2       0.35811    0.10111    0.81912   1.00
H2       0.32891    0.07661    0.78261   1.00
H2       0.31494    0.12433    0.79859   1.00
C5       0.49020    0.22659    0.62550   1.00
H2       0.51218    0.23596    0.60346   1.00
H2       0.46955    0.25140    0.62942   1.00
C5       0.46803    0.19011    0.61149   1.00
H2       0.45666    0.19492    0.58150   1.00
C5       0.12406    -0.13227   0.76647   1.00
H2       0.13036    -0.14755   0.73860   1.00
H2       0.10054    -0.11099   0.75979   1.00
C5       0.10996    -0.16219   0.79722   1.00
H2       0.07843    -0.16890   0.79318   1.00
H2       0.11453    -0.15040   0.82714   1.00
O_3      0.24705    0.02000    0.82069   1.00
C4       0.25015    -0.02100   0.74958   1.00
C3c      0.21529    -0.04243   0.74749   1.00
H1       0.18769    -0.02725   0.74572   1.00
C3d      0.28583    -0.04135   0.75130   1.00
C3       0.21534    -0.08354   0.74820   1.00
O2       0.18061    -0.10248   0.74126   1.00
C3       0.28594    -0.08227   0.75276   1.00
H1       0.31392    -0.09657   0.75548   1.00
C2       0.25092    -0.10439   0.75111   1.00
C5       0.28347    0.02121    0.83992   1.00
H2       0.29273    0.05162    0.84682   1.00
H2       0.30674    0.00734    0.82185   1.00
C5       0.27933    -0.00122   0.87794   1.00
H2       0.26902    -0.03129   0.87113   1.00
H2       0.25629    0.01309    0.89590   1.00
C5       0.31816    -0.00254   0.90015   1.00
H2       0.32877    0.02740    0.90681   1.00
H2       0.34083    -0.01803   0.88280   1.00
H2       0.31436    -0.01830   0.92825   1.00
C5       0.33590    -0.01105   0.71961   1.00
C5       0.16174    -0.11070   0.77702   1.00
H2       0.31585    0.00912    0.70397   1.00
H2       0.34120    -0.03712   0.70084   1.00
H2       0.15489    -0.08300   0.79270   1.00
H2       0.18009    -0.12895   0.79693   1.00
H2       0.12583    -0.19055   0.79428   1.00
H2       0.36932    0.05750    0.68370   1.00
H2       0.38924    0.01234    0.66426   1.00
C2       0.25164    0.10395    0.75198   1.00
C3       0.25112    0.08403    0.71592   1.00
O2       0.26079    0.10326    0.68190   1.00
C3       0.24971    0.08174    0.78674   1.00
H1       0.24904    0.09615    0.81477   1.00
C3a      0.24973    0.04287    0.71538   1.00
H1       0.25160    0.02798    0.68762   1.00
C3b      0.24959    0.04078    0.78612   1.00
C4       0.24968    0.02100    0.75028   1.00
O_3      0.32072    -0.02167   0.75638   1.00
C5       0.22678    0.11280    0.66076   1.00
H2       0.20979    0.08609    0.65303   1.00
C5       0.23995    0.13334    0.62335   1.00
H2       0.20762    0.13274    0.67790   1.00
H2       0.24961    0.11077    0.60207   1.00
H2       0.26623    0.15101    0.63068   1.00
C5       0.20790    0.15931    0.60537   1.00
H2       0.18088    0.14189    0.60111   1.00
H2       0.21739    0.17109    0.57661   1.00
H2       0.20141    0.18506    0.62433   1.00
C5       0.37450    0.00980    0.72659   1.00
H2       0.39654    -0.01218   0.73596   1.00
H2       0.37058    0.03045    0.75140   1.00
C5       0.38851    0.03197    0.69011   1.00
H2       0.41850    0.04334    0.69492   1.00
C5       0.26647    0.12406    0.36773   1.00
H2       0.23860    0.13036    0.35245   1.00
H2       0.25979    0.10054    0.38901   1.00
C5       0.29722    0.10996    0.33781   1.00
H2       0.29318    0.07843    0.33110   1.00
H2       0.32714    0.11453    0.34960   1.00
O_3      0.32069    0.24705    0.52000   1.00
C4       0.24958    0.25015    0.47900   1.00
C3c      0.24749    0.21529    0.45757   1.00
H1       0.24572    0.18769    0.47275   1.00
C3d      0.25130    0.28583    0.45865   1.00
C3       0.24820    0.21534    0.41646   1.00
O2       0.24126    0.18061    0.39752   1.00
C3       0.25276    0.28594    0.41773   1.00
H1       0.25548    0.31392    0.40343   1.00
C2       0.25111    0.25092    0.39561   1.00
C5       0.33992    0.28347    0.52121   1.00
H2       0.34682    0.29273    0.55162   1.00
H2       0.32185    0.30674    0.50734   1.00
C5       0.37794    0.27933    0.49878   1.00
H2       0.37113    0.26902    0.46871   1.00
H2       0.39590    0.25629    0.51309   1.00
C5       0.40015    0.31816    0.49746   1.00
H2       0.40681    0.32877    0.52740   1.00
H2       0.38280    0.34083    0.48197   1.00
H2       0.42825    0.31436    0.48170   1.00
C5       0.21961    0.33590    0.48895   1.00
C5       0.27702    0.16174    0.38930   1.00
H2       0.20397    0.31585    0.50912   1.00
H2       0.20084    0.34120    0.46288   1.00
H2       0.29270    0.15489    0.41700   1.00
H2       0.29693    0.18009    0.37105   1.00
H2       0.29428    0.12583    0.30945   1.00
H2       0.18370    0.36932    0.55750   1.00
H2       0.16426    0.38924    0.51234   1.00
C2       0.25198    0.25164    0.60395   1.00
C3       0.21592    0.25112    0.58403   1.00
O2       0.18190    0.26079    0.60326   1.00
C3       0.28674    0.24971    0.58174   1.00
H1       0.31477    0.24904    0.59615   1.00
C3a      0.21538    0.24973    0.54287   1.00
H1       0.18762    0.25160    0.52798   1.00
C3b      0.28612    0.24959    0.54078   1.00
C4       0.25028    0.24968    0.52100   1.00
O_3      0.25638    0.32072    0.47833   1.00
C5       0.16076    0.22678    0.61280   1.00
H2       0.15303    0.20979    0.58609   1.00
C5       0.12335    0.23995    0.63334   1.00
H2       0.17790    0.20762    0.63274   1.00
H2       0.10207    0.24961    0.61077   1.00
H2       0.13068    0.26623    0.65101   1.00
C5       0.10537    0.20790    0.65931   1.00
H2       0.10111    0.18088    0.64189   1.00
H2       0.07661    0.21739    0.67109   1.00
H2       0.12433    0.20141    0.68506   1.00
C5       0.22659    0.37450    0.50980   1.00
H2       0.23596    0.39654    0.48782   1.00
H2       0.25140    0.37058    0.53045   1.00
C5       0.19011    0.38851    0.53197   1.00
H2       0.19492    0.41850    0.54334   1.00
C5       0.26647    0.87594    0.63227   1.00
H2       0.23860    0.86964    0.64755   1.00
H2       0.25979    0.89946    0.61099   1.00
C5       0.29722    0.89004    0.66219   1.00
H2       0.29318    0.92157    0.66890   1.00
H2       0.32714    0.88547    0.65040   1.00
O_3      0.32069    0.75295    0.48000   1.00
C4       0.24958    0.74985    0.52100   1.00
C3c      0.24749    0.78471    0.54243   1.00
H1       0.24572    0.81231    0.52725   1.00
C3d      0.25130    0.71417    0.54135   1.00
C3       0.24820    0.78466    0.58354   1.00
O2       0.24126    0.81939    0.60248   1.00
C3       0.25276    0.71406    0.58227   1.00
H1       0.25548    0.68608    0.59657   1.00
C2       0.25111    0.74908    0.60439   1.00
C5       0.33992    0.71653    0.47879   1.00
H2       0.34682    0.70727    0.44838   1.00
H2       0.32185    0.69326    0.49266   1.00
C5       0.37794    0.72067    0.50122   1.00
H2       0.37113    0.73098    0.53129   1.00
H2       0.39590    0.74371    0.48691   1.00
C5       0.40015    0.68184    0.50254   1.00
H2       0.40681    0.67123    0.47260   1.00
H2       0.38280    0.65917    0.51803   1.00
H2       0.42825    0.68564    0.51830   1.00
C5       0.21961    0.66410    0.51105   1.00
C5       0.27702    0.83826    0.61070   1.00
H2       0.20397    0.68415    0.49088   1.00
H2       0.20084    0.65880    0.53712   1.00
H2       0.29270    0.84511    0.58300   1.00
H2       0.29693    0.81991    0.62895   1.00
H2       0.29428    0.87417    0.69055   1.00
H2       0.18370    0.63068    0.44250   1.00
H2       0.16426    0.61076    0.48766   1.00
C2       0.25198    0.74836    0.39605   1.00
C3       0.21592    0.74888    0.41597   1.00
O2       0.18190    0.73921    0.39674   1.00
C3       0.28674    0.75029    0.41826   1.00
H1       0.31477    0.75096    0.40385   1.00
C3a      0.21538    0.75027    0.45713   1.00
H1       0.18762    0.74840    0.47202   1.00
C3b      0.28612    0.75041    0.45922   1.00
C4       0.25028    0.75032    0.47900   1.00
O_3      0.25638    0.67928    0.52167   1.00
C5       0.16076    0.77322    0.38720   1.00
H2       0.15303    0.79021    0.41391   1.00
C5       0.12335    0.76005    0.36666   1.00
H2       0.17790    0.79238    0.36726   1.00
H2       0.10207    0.75039    0.38923   1.00
H2       0.13068    0.73377    0.34899   1.00
C5       0.10537    0.79210    0.34069   1.00
H2       0.10111    0.81912    0.35811   1.00
H2       0.07661    0.78261    0.32891   1.00
H2       0.12433    0.79859    0.31494   1.00
C5       0.22659    0.62550    0.49020   1.00
H2       0.23596    0.60346    0.51218   1.00
H2       0.25140    0.62942    0.46955   1.00
C5       0.19011    0.61149    0.46803   1.00
H2       0.19492    0.58150    0.45666   1.00
C5       0.37594    1.13227    0.26647   1.00
H2       0.36964    1.14755    0.23860   1.00
H2       0.39946    1.11099    0.25979   1.00
C5       0.39004    1.16219    0.29722   1.00
H2       0.42157    1.16890    0.29318   1.00
H2       0.38547    1.15040    0.32714   1.00
O_3      0.25295    0.98000    0.32069   1.00
C4       0.24985    1.02100    0.24958   1.00
C3c      0.28471    1.04243    0.24749   1.00
H1       0.31231    1.02725    0.24572   1.00
C3d      0.21417    1.04135    0.25130   1.00
C3       0.28466    1.08354    0.24820   1.00
O2       0.31939    1.10248    0.24126   1.00
C3       0.21406    1.08227    0.25276   1.00
H1       0.18608    1.09657    0.25548   1.00
C2       0.24908    1.10439    0.25111   1.00
C5       0.21653    0.97879    0.33992   1.00
H2       0.20727    0.94838    0.34682   1.00
H2       0.19326    0.99266    0.32185   1.00
C5       0.22067    1.00122    0.37794   1.00
H2       0.23098    1.03129    0.37113   1.00
H2       0.24371    0.98691    0.39590   1.00
C5       0.18184    1.00254    0.40015   1.00
H2       0.17123    0.97260    0.40681   1.00
H2       0.15917    1.01803    0.38280   1.00
H2       0.18564    1.01830    0.42825   1.00
C5       0.16410    1.01105    0.21961   1.00
C5       0.33826    1.11070    0.27702   1.00
H2       0.18415    0.99088    0.20397   1.00
H2       0.15880    1.03712    0.20084   1.00
H2       0.34511    1.08300    0.29270   1.00
H2       0.31991    1.12895    0.29693   1.00
H2       0.37417    1.19055    0.29428   1.00
H2       0.13068    0.94250    0.18370   1.00
H2       0.11076    0.98766    0.16426   1.00
C2       0.24836    0.89605    0.25198   1.00
C3       0.24888    0.91597    0.21592   1.00
O2       0.23921    0.89674    0.18190   1.00
C3       0.25029    0.91826    0.28674   1.00
H1       0.25096    0.90385    0.31477   1.00
C3a      0.25027    0.95713    0.21538   1.00
H1       0.24840    0.97202    0.18762   1.00
C3b      0.25041    0.95922    0.28612   1.00
C4       0.25032    0.97900    0.25028   1.00
O_3      0.17928    1.02167    0.25638   1.00
C5       0.27322    0.88720    0.16076   1.00
H2       0.29021    0.91391    0.15303   1.00
C5       0.26005    0.86666    0.12335   1.00
H2       0.29238    0.86726    0.17790   1.00
H2       0.25039    0.88923    0.10207   1.00
H2       0.23377    0.84899    0.13068   1.00
C5       0.29210    0.84069    0.10537   1.00
H2       0.31912    0.85811    0.10111   1.00
H2       0.28261    0.82891    0.07661   1.00
H2       0.29859    0.81494    0.12433   1.00
C5       0.12550    0.99020    0.22659   1.00
H2       0.10346    1.01218    0.23596   1.00
H2       0.12942    0.96955    0.25140   1.00
C5       0.11149    0.96803    0.19011   1.00
H2       0.08150    0.95666    0.19492   1.00
C5       -0.13227   0.76647    0.12406   1.00
H2       -0.14755   0.73860    0.13036   1.00
H2       -0.11099   0.75979    0.10054   1.00
C5       -0.16219   0.79722    0.10996   1.00
H2       -0.16890   0.79318    0.07843   1.00
H2       -0.15040   0.82714    0.11453   1.00
O_3      0.02000    0.82069    0.24705   1.00
C4       -0.02100   0.74958    0.25015   1.00
C3c      -0.04243   0.74749    0.21529   1.00
H1       -0.02725   0.74572    0.18769   1.00
C3d      -0.04135   0.75130    0.28583   1.00
C3       -0.08354   0.74820    0.21534   1.00
O2       -0.10248   0.74126    0.18061   1.00
C3       -0.08227   0.75276    0.28594   1.00
H1       -0.09657   0.75548    0.31392   1.00
C2       -0.10439   0.75111    0.25092   1.00
C5       0.02121    0.83992    0.28347   1.00
H2       0.05162    0.84682    0.29273   1.00
H2       0.00734    0.82185    0.30674   1.00
C5       -0.00122   0.87794    0.27933   1.00
H2       -0.03129   0.87113    0.26902   1.00
H2       0.01309    0.89590    0.25629   1.00
C5       -0.00254   0.90015    0.31816   1.00
H2       0.02740    0.90681    0.32877   1.00
H2       -0.01803   0.88280    0.34083   1.00
H2       -0.01830   0.92825    0.31436   1.00
C5       -0.01105   0.71961    0.33590   1.00
C5       -0.11070   0.77702    0.16174   1.00
H2       0.00912    0.70397    0.31585   1.00
H2       -0.03712   0.70084    0.34120   1.00
H2       -0.08300   0.79270    0.15489   1.00
H2       -0.12895   0.79693    0.18009   1.00
H2       -0.19055   0.79428    0.12583   1.00
H2       0.05750    0.68370    0.36932   1.00
H2       0.01234    0.66426    0.38924   1.00
C2       0.10395    0.75198    0.25164   1.00
C3       0.08403    0.71592    0.25112   1.00
O2       0.10326    0.68190    0.26079   1.00
C3       0.08174    0.78674    0.24971   1.00
H1       0.09615    0.81477    0.24904   1.00
C3a      0.04287    0.71538    0.24973   1.00
H1       0.02798    0.68762    0.25160   1.00
C3b      0.04078    0.78612    0.24959   1.00
C4       0.02100    0.75028    0.24968   1.00
O_3      -0.02167   0.75638    0.32072   1.00
C5       0.11280    0.66076    0.22678   1.00
H2       0.08609    0.65303    0.20979   1.00
C5       0.13334    0.62335    0.23995   1.00
H2       0.13274    0.67790    0.20762   1.00
H2       0.11077    0.60207    0.24961   1.00
H2       0.15101    0.63068    0.26623   1.00
C5       0.15931    0.60537    0.20790   1.00
H2       0.14189    0.60111    0.18088   1.00
H2       0.17109    0.57661    0.21739   1.00
H2       0.18506    0.62433    0.20141   1.00
C5       0.00980    0.72659    0.37450   1.00
H2       -0.01218   0.73596    0.39654   1.00
H2       0.03045    0.75140    0.37058   1.00
C5       0.03197    0.69011    0.38851   1.00
H2       0.04334    0.69492    0.41850   1.00
C5       0.63227    0.76647    0.37594   1.00
H2       0.64755    0.73860    0.36964   1.00
H2       0.61099    0.75979    0.39946   1.00
C5       0.66219    0.79722    0.39004   1.00
H2       0.66890    0.79318    0.42157   1.00
H2       0.65040    0.82714    0.38547   1.00
O_3      0.48000    0.82069    0.25295   1.00
C4       0.52100    0.74958    0.24985   1.00
C3c      0.54243    0.74749    0.28471   1.00
H1       0.52725    0.74572    0.31231   1.00
C3d      0.54135    0.75130    0.21417   1.00
C3       0.58354    0.74820    0.28466   1.00
O2       0.60248    0.74126    0.31939   1.00
C3       0.58227    0.75276    0.21406   1.00
H1       0.59657    0.75548    0.18608   1.00
C2       0.60439    0.75111    0.24908   1.00
C5       0.47879    0.83992    0.21653   1.00
H2       0.44838    0.84682    0.20727   1.00
H2       0.49266    0.82185    0.19326   1.00
C5       0.50122    0.87794    0.22067   1.00
H2       0.53129    0.87113    0.23098   1.00
H2       0.48691    0.89590    0.24371   1.00
C5       0.50254    0.90015    0.18184   1.00
H2       0.47260    0.90681    0.17123   1.00
H2       0.51803    0.88280    0.15917   1.00
H2       0.51830    0.92825    0.18564   1.00
C5       0.51105    0.71961    0.16410   1.00
C5       0.61070    0.77702    0.33826   1.00
H2       0.49088    0.70397    0.18415   1.00
H2       0.53712    0.70084    0.15880   1.00
H2       0.58300    0.79270    0.34511   1.00
H2       0.62895    0.79693    0.31991   1.00
H2       0.69055    0.79428    0.37417   1.00
H2       0.44250    0.68370    0.13068   1.00
H2       0.48766    0.66426    0.11076   1.00
C2       0.39605    0.75198    0.24836   1.00
C3       0.41597    0.71592    0.24888   1.00
O2       0.39674    0.68190    0.23921   1.00
C3       0.41826    0.78674    0.25029   1.00
H1       0.40385    0.81477    0.25096   1.00
C3a      0.45713    0.71538    0.25027   1.00
H1       0.47202    0.68762    0.24840   1.00
C3b      0.45922    0.78612    0.25041   1.00
C4       0.47900    0.75028    0.25032   1.00
O_3      0.52167    0.75638    0.17928   1.00
C5       0.38720    0.66076    0.27322   1.00
H2       0.41391    0.65303    0.29021   1.00
C5       0.36666    0.62335    0.26005   1.00
H2       0.36726    0.67790    0.29238   1.00
H2       0.38923    0.60207    0.25039   1.00
H2       0.34899    0.63068    0.23377   1.00
C5       0.34069    0.60537    0.29210   1.00
H2       0.35811    0.60111    0.31912   1.00
H2       0.32891    0.57661    0.28261   1.00
H2       0.31494    0.62433    0.29859   1.00
C5       0.49020    0.72659    0.12550   1.00
H2       0.51218    0.73596    0.10346   1.00
H2       0.46955    0.75140    0.12942   1.00
C5       0.46803    0.69011    0.11149   1.00
H2       0.45666    0.69492    0.08150   1.00
C5       0.12406    0.36773    0.26647   1.00
H2       0.13036    0.35245    0.23860   1.00
H2       0.10054    0.38901    0.25979   1.00
C5       0.10996    0.33781    0.29722   1.00
H2       0.07843    0.33110    0.29318   1.00
H2       0.11453    0.34960    0.32714   1.00
O_3      0.24705    0.52000    0.32069   1.00
C4       0.25015    0.47900    0.24958   1.00
C3c      0.21529    0.45757    0.24749   1.00
H1       0.18769    0.47275    0.24572   1.00
C3d      0.28583    0.45865    0.25130   1.00
C3       0.21534    0.41646    0.24820   1.00
O2       0.18061    0.39752    0.24126   1.00
C3       0.28594    0.41773    0.25276   1.00
H1       0.31392    0.40343    0.25548   1.00
C2       0.25092    0.39561    0.25111   1.00
C5       0.28347    0.52121    0.33992   1.00
H2       0.29273    0.55162    0.34682   1.00
H2       0.30674    0.50734    0.32185   1.00
C5       0.27933    0.49878    0.37794   1.00
H2       0.26902    0.46871    0.37113   1.00
H2       0.25629    0.51309    0.39590   1.00
C5       0.31816    0.49746    0.40015   1.00
H2       0.32877    0.52740    0.40681   1.00
H2       0.34083    0.48197    0.38280   1.00
H2       0.31436    0.48170    0.42825   1.00
C5       0.33590    0.48895    0.21961   1.00
C5       0.16174    0.38930    0.27702   1.00
H2       0.31585    0.50912    0.20397   1.00
H2       0.34120    0.46288    0.20084   1.00
H2       0.15489    0.41700    0.29270   1.00
H2       0.18009    0.37105    0.29693   1.00
H2       0.12583    0.30945    0.29428   1.00
H2       0.36932    0.55750    0.18370   1.00
H2       0.38924    0.51234    0.16426   1.00
C2       0.25164    0.60395    0.25198   1.00
C3       0.25112    0.58403    0.21592   1.00
O2       0.26079    0.60326    0.18190   1.00
C3       0.24971    0.58174    0.28674   1.00
H1       0.24904    0.59615    0.31477   1.00
C3a      0.24973    0.54287    0.21538   1.00
H1       0.25160    0.52798    0.18762   1.00
C3b      0.24959    0.54078    0.28612   1.00
C4       0.24968    0.52100    0.25028   1.00
O_3      0.32072    0.47833    0.25638   1.00
C5       0.22678    0.61280    0.16076   1.00
H2       0.20979    0.58609    0.15303   1.00
C5       0.23995    0.63334    0.12335   1.00
H2       0.20762    0.63274    0.17790   1.00
H2       0.24961    0.61077    0.10207   1.00
H2       0.26623    0.65101    0.13068   1.00
C5       0.20790    0.65931    0.10537   1.00
H2       0.18088    0.64189    0.10111   1.00
H2       0.21739    0.67109    0.07661   1.00
H2       0.20141    0.68506    0.12433   1.00
C5       0.37450    0.50980    0.22659   1.00
H2       0.39654    0.48782    0.23596   1.00
H2       0.37058    0.53045    0.25140   1.00
C5       0.38851    0.53197    0.19011   1.00
H2       0.41850    0.54334    0.19492   1.00
C5       0.26647    0.62406    -0.13227   1.00
H2       0.23860    0.63036    -0.14755   1.00
H2       0.25979    0.60054    -0.11099   1.00
C5       0.29722    0.60996    -0.16219   1.00
H2       0.29318    0.57843    -0.16890   1.00
H2       0.32714    0.61453    -0.15040   1.00
O_3      0.32069    0.74705    0.02000   1.00
C4       0.24958    0.75015    -0.02100   1.00
C3c      0.24749    0.71529    -0.04243   1.00
H1       0.24572    0.68769    -0.02725   1.00
C3d      0.25130    0.78583    -0.04135   1.00
C3       0.24820    0.71534    -0.08354   1.00
O2       0.24126    0.68061    -0.10248   1.00
C3       0.25276    0.78594    -0.08227   1.00
H1       0.25548    0.81392    -0.09657   1.00
C2       0.25111    0.75092    -0.10439   1.00
C5       0.33992    0.78347    0.02121   1.00
H2       0.34682    0.79273    0.05162   1.00
H2       0.32185    0.80674    0.00734   1.00
C5       0.37794    0.77933    -0.00122   1.00
H2       0.37113    0.76902    -0.03129   1.00
H2       0.39590    0.75629    0.01309   1.00
C5       0.40015    0.81816    -0.00254   1.00
H2       0.40681    0.82877    0.02740   1.00
H2       0.38280    0.84083    -0.01803   1.00
H2       0.42825    0.81436    -0.01830   1.00
C5       0.21961    0.83590    -0.01105   1.00
C5       0.27702    0.66174    -0.11070   1.00
H2       0.20397    0.81585    0.00912   1.00
H2       0.20084    0.84120    -0.03712   1.00
H2       0.29270    0.65489    -0.08300   1.00
H2       0.29693    0.68009    -0.12895   1.00
H2       0.29428    0.62583    -0.19055   1.00
H2       0.18370    0.86932    0.05750   1.00
H2       0.16426    0.88924    0.01234   1.00
C2       0.25198    0.75164    0.10395   1.00
C3       0.21592    0.75112    0.08403   1.00
O2       0.18190    0.76079    0.10326   1.00
C3       0.28674    0.74971    0.08174   1.00
H1       0.31477    0.74904    0.09615   1.00
C3a      0.21538    0.74973    0.04287   1.00
H1       0.18762    0.75160    0.02798   1.00
C3b      0.28612    0.74959    0.04078   1.00
C4       0.25028    0.74968    0.02100   1.00
O_3      0.25638    0.82072    -0.02167   1.00
C5       0.16076    0.72678    0.11280   1.00
H2       0.15303    0.70979    0.08609   1.00
C5       0.12335    0.73995    0.13334   1.00
H2       0.17790    0.70762    0.13274   1.00
H2       0.10207    0.74961    0.11077   1.00
H2       0.13068    0.76623    0.15101   1.00
C5       0.10537    0.70790    0.15931   1.00
H2       0.10111    0.68088    0.14189   1.00
H2       0.07661    0.71739    0.17109   1.00
H2       0.12433    0.70141    0.18506   1.00
C5       0.22659    0.87450    0.00980   1.00
H2       0.23596    0.89654    -0.01218   1.00
H2       0.25140    0.87058    0.03045   1.00
C5       0.19011    0.88851    0.03197   1.00
H2       0.19492    0.91850    0.04334   1.00
C5       0.76647    0.37594    0.63227   1.00
H2       0.73860    0.36964    0.64755   1.00
H2       0.75979    0.39946    0.61099   1.00
C5       0.79722    0.39004    0.66219   1.00
H2       0.79318    0.42157    0.66890   1.00
H2       0.82714    0.38547    0.65040   1.00
O_3      0.82069    0.25295    0.48000   1.00
C4       0.74958    0.24985    0.52100   1.00
C3c      0.74749    0.28471    0.54243   1.00
H1       0.74572    0.31231    0.52725   1.00
C3d      0.75130    0.21417    0.54135   1.00
C3       0.74820    0.28466    0.58354   1.00
O2       0.74126    0.31939    0.60248   1.00
C3       0.75276    0.21406    0.58227   1.00
H1       0.75548    0.18608    0.59657   1.00
C2       0.75111    0.24908    0.60439   1.00
C5       0.83992    0.21653    0.47879   1.00
H2       0.84682    0.20727    0.44838   1.00
H2       0.82185    0.19326    0.49266   1.00
C5       0.87794    0.22067    0.50122   1.00
H2       0.87113    0.23098    0.53129   1.00
H2       0.89590    0.24371    0.48691   1.00
C5       0.90015    0.18184    0.50254   1.00
H2       0.90681    0.17123    0.47260   1.00
H2       0.88280    0.15917    0.51803   1.00
H2       0.92825    0.18564    0.51830   1.00
C5       0.71961    0.16410    0.51105   1.00
C5       0.77702    0.33826    0.61070   1.00
H2       0.70397    0.18415    0.49088   1.00
H2       0.70084    0.15880    0.53712   1.00
H2       0.79270    0.34511    0.58300   1.00
H2       0.79693    0.31991    0.62895   1.00
H2       0.79428    0.37417    0.69055   1.00
H2       0.68370    0.13068    0.44250   1.00
H2       0.66426    0.11076    0.48766   1.00
C2       0.75198    0.24836    0.39605   1.00
C3       0.71592    0.24888    0.41597   1.00
O2       0.68190    0.23921    0.39674   1.00
C3       0.78674    0.25029    0.41826   1.00
H1       0.81477    0.25096    0.40385   1.00
C3a      0.71538    0.25027    0.45713   1.00
H1       0.68762    0.24840    0.47202   1.00
C3b      0.78612    0.25041    0.45922   1.00
C4       0.75028    0.25032    0.47900   1.00
O_3      0.75638    0.17928    0.52167   1.00
C5       0.66076    0.27322    0.38720   1.00
H2       0.65303    0.29021    0.41391   1.00
C5       0.62335    0.26005    0.36666   1.00
H2       0.67790    0.29238    0.36726   1.00
H2       0.60207    0.25039    0.38923   1.00
H2       0.63068    0.23377    0.34899   1.00
C5       0.60537    0.29210    0.34069   1.00
H2       0.60111    0.31912    0.35811   1.00
H2       0.57661    0.28261    0.32891   1.00
H2       0.62433    0.29859    0.31494   1.00
C5       0.72659    0.12550    0.49020   1.00
H2       0.73596    0.10346    0.51218   1.00
H2       0.75140    0.12942    0.46955   1.00
C5       0.69011    0.11149    0.46803   1.00
H2       0.69492    0.08150    0.45666   1.00
C5       0.87594    0.63227    0.26647   1.00
H2       0.86964    0.64755    0.23860   1.00
H2       0.89946    0.61099    0.25979   1.00
C5       0.89004    0.66219    0.29722   1.00
H2       0.92157    0.66890    0.29318   1.00
H2       0.88547    0.65040    0.32714   1.00
O_3      0.75295    0.48000    0.32069   1.00
C4       0.74985    0.52100    0.24958   1.00
C3c      0.78471    0.54243    0.24749   1.00
H1       0.81231    0.52725    0.24572   1.00
C3d      0.71417    0.54135    0.25130   1.00
C3       0.78466    0.58354    0.24820   1.00
O2       0.81939    0.60248    0.24126   1.00
C3       0.71406    0.58227    0.25276   1.00
H1       0.68608    0.59657    0.25548   1.00
C2       0.74908    0.60439    0.25111   1.00
C5       0.71653    0.47879    0.33992   1.00
H2       0.70727    0.44838    0.34682   1.00
H2       0.69326    0.49266    0.32185   1.00
C5       0.72067    0.50122    0.37794   1.00
H2       0.73098    0.53129    0.37113   1.00
H2       0.74371    0.48691    0.39590   1.00
C5       0.68184    0.50254    0.40015   1.00
H2       0.67123    0.47260    0.40681   1.00
H2       0.65917    0.51803    0.38280   1.00
H2       0.68564    0.51830    0.42825   1.00
C5       0.66410    0.51105    0.21961   1.00
C5       0.83826    0.61070    0.27702   1.00
H2       0.68415    0.49088    0.20397   1.00
H2       0.65880    0.53712    0.20084   1.00
H2       0.84511    0.58300    0.29270   1.00
H2       0.81991    0.62895    0.29693   1.00
H2       0.87417    0.69055    0.29428   1.00
H2       0.63068    0.44250    0.18370   1.00
H2       0.61076    0.48766    0.16426   1.00
C2       0.74836    0.39605    0.25198   1.00
C3       0.74888    0.41597    0.21592   1.00
O2       0.73921    0.39674    0.18190   1.00
C3       0.75029    0.41826    0.28674   1.00
H1       0.75096    0.40385    0.31477   1.00
C3a      0.75027    0.45713    0.21538   1.00
H1       0.74840    0.47202    0.18762   1.00
C3b      0.75041    0.45922    0.28612   1.00
C4       0.75032    0.47900    0.25028   1.00
O_3      0.67928    0.52167    0.25638   1.00
C5       0.77322    0.38720    0.16076   1.00
H2       0.79021    0.41391    0.15303   1.00
C5       0.76005    0.36666    0.12335   1.00
H2       0.79238    0.36726    0.17790   1.00
H2       0.75039    0.38923    0.10207   1.00
H2       0.73377    0.34899    0.13068   1.00
C5       0.79210    0.34069    0.10537   1.00
H2       0.81912    0.35811    0.10111   1.00
H2       0.78261    0.32891    0.07661   1.00
H2       0.79859    0.31494    0.12433   1.00
C5       0.62550    0.49020    0.22659   1.00
H2       0.60346    0.51218    0.23596   1.00
H2       0.62942    0.46955    0.25140   1.00
C5       0.61149    0.46803    0.19011   1.00
H2       0.58150    0.45666    0.19492   1.00
C5       0.36773    0.26647    0.12406   1.00
H2       0.35245    0.23860    0.13036   1.00
H2       0.38901    0.25979    0.10054   1.00
C5       0.33781    0.29722    0.10996   1.00
H2       0.33110    0.29318    0.07843   1.00
H2       0.34960    0.32714    0.11453   1.00
O_3      0.52000    0.32069    0.24705   1.00
C4       0.47900    0.24958    0.25015   1.00
C3c      0.45757    0.24749    0.21529   1.00
H1       0.47275    0.24572    0.18769   1.00
C3d      0.45865    0.25130    0.28583   1.00
C3       0.41646    0.24820    0.21534   1.00
O2       0.39752    0.24126    0.18061   1.00
C3       0.41773    0.25276    0.28594   1.00
H1       0.40343    0.25548    0.31392   1.00
C2       0.39561    0.25111    0.25092   1.00
C5       0.52121    0.33992    0.28347   1.00
H2       0.55162    0.34682    0.29273   1.00
H2       0.50734    0.32185    0.30674   1.00
C5       0.49878    0.37794    0.27933   1.00
H2       0.46871    0.37113    0.26902   1.00
H2       0.51309    0.39590    0.25629   1.00
C5       0.49746    0.40015    0.31816   1.00
H2       0.52740    0.40681    0.32877   1.00
H2       0.48197    0.38280    0.34083   1.00
H2       0.48170    0.42825    0.31436   1.00
C5       0.48895    0.21961    0.33590   1.00
C5       0.38930    0.27702    0.16174   1.00
H2       0.50912    0.20397    0.31585   1.00
H2       0.46288    0.20084    0.34120   1.00
H2       0.41700    0.29270    0.15489   1.00
H2       0.37105    0.29693    0.18009   1.00
H2       0.30945    0.29428    0.12583   1.00
H2       0.55750    0.18370    0.36932   1.00
H2       0.51234    0.16426    0.38924   1.00
C2       0.60395    0.25198    0.25164   1.00
C3       0.58403    0.21592    0.25112   1.00
O2       0.60326    0.18190    0.26079   1.00
C3       0.58174    0.28674    0.24971   1.00
H1       0.59615    0.31477    0.24904   1.00
C3a      0.54287    0.21538    0.24973   1.00
H1       0.52798    0.18762    0.25160   1.00
C3b      0.54078    0.28612    0.24959   1.00
C4       0.52100    0.25028    0.24968   1.00
O_3      0.47833    0.25638    0.32072   1.00
C5       0.61280    0.16076    0.22678   1.00
H2       0.58609    0.15303    0.20979   1.00
C5       0.63334    0.12335    0.23995   1.00
H2       0.63274    0.17790    0.20762   1.00
H2       0.61077    0.10207    0.24961   1.00
H2       0.65101    0.13068    0.26623   1.00
C5       0.65931    0.10537    0.20790   1.00
H2       0.64189    0.10111    0.18088   1.00
H2       0.67109    0.07661    0.21739   1.00
H2       0.68506    0.12433    0.20141   1.00
C5       0.50980    0.22659    0.37450   1.00
H2       0.48782    0.23596    0.39654   1.00
H2       0.53045    0.25140    0.37058   1.00
C5       0.53197    0.19011    0.38851   1.00
H2       0.54334    0.19492    0.41850   1.00
C5       1.13227    0.26647    0.37594   1.00
H2       1.14755    0.23860    0.36964   1.00
H2       1.11099    0.25979    0.39946   1.00
C5       1.16219    0.29722    0.39004   1.00
H2       1.16890    0.29318    0.42157   1.00
H2       1.15040    0.32714    0.38547   1.00
O_3      0.98000    0.32069    0.25295   1.00
C4       1.02100    0.24958    0.24985   1.00
C3c      1.04243    0.24749    0.28471   1.00
H1       1.02725    0.24572    0.31231   1.00
C3d      1.04135    0.25130    0.21417   1.00
C3       1.08354    0.24820    0.28466   1.00
O2       1.10248    0.24126    0.31939   1.00
C3       1.08227    0.25276    0.21406   1.00
H1       1.09657    0.25548    0.18608   1.00
C2       1.10439    0.25111    0.24908   1.00
C5       0.97879    0.33992    0.21653   1.00
H2       0.94838    0.34682    0.20727   1.00
H2       0.99266    0.32185    0.19326   1.00
C5       1.00122    0.37794    0.22067   1.00
H2       1.03129    0.37113    0.23098   1.00
H2       0.98691    0.39590    0.24371   1.00
C5       1.00254    0.40015    0.18184   1.00
H2       0.97260    0.40681    0.17123   1.00
H2       1.01803    0.38280    0.15917   1.00
H2       1.01830    0.42825    0.18564   1.00
C5       1.01105    0.21961    0.16410   1.00
C5       1.11070    0.27702    0.33826   1.00
H2       0.99088    0.20397    0.18415   1.00
H2       1.03712    0.20084    0.15880   1.00
H2       1.08300    0.29270    0.34511   1.00
H2       1.12895    0.29693    0.31991   1.00
H2       1.19055    0.29428    0.37417   1.00
H2       0.94250    0.18370    0.13068   1.00
H2       0.98766    0.16426    0.11076   1.00
C2       0.89605    0.25198    0.24836   1.00
C3       0.91597    0.21592    0.24888   1.00
O2       0.89674    0.18190    0.23921   1.00
C3       0.91826    0.28674    0.25029   1.00
H1       0.90385    0.31477    0.25096   1.00
C3a      0.95713    0.21538    0.25027   1.00
H1       0.97202    0.18762    0.24840   1.00
C3b      0.95922    0.28612    0.25041   1.00
C4       0.97900    0.25028    0.25032   1.00
O_3      1.02167    0.25638    0.17928   1.00
C5       0.88720    0.16076    0.27322   1.00
H2       0.91391    0.15303    0.29021   1.00
C5       0.86666    0.12335    0.26005   1.00
H2       0.86726    0.17790    0.29238   1.00
H2       0.88923    0.10207    0.25039   1.00
H2       0.84899    0.13068    0.23377   1.00
C5       0.84069    0.10537    0.29210   1.00
H2       0.85811    0.10111    0.31912   1.00
H2       0.82891    0.07661    0.28261   1.00
H2       0.81494    0.12433    0.29859   1.00
C5       0.99020    0.22659    0.12550   1.00
H2       1.01218    0.23596    0.10346   1.00
H2       0.96955    0.25140    0.12942   1.00
C5       0.96803    0.19011    0.11149   1.00
H2       0.95666    0.19492    0.08150   1.00
C5       0.62406    -0.13227   0.26647   1.00
H2       0.63036    -0.14755   0.23860   1.00
H2       0.60054    -0.11099   0.25979   1.00
C5       0.60996    -0.16219   0.29722   1.00
H2       0.57843    -0.16890   0.29318   1.00
H2       0.61453    -0.15040   0.32714   1.00
O_3      0.74705    0.02000    0.32069   1.00
C4       0.75015    -0.02100   0.24958   1.00
C3c      0.71529    -0.04243   0.24749   1.00
H1       0.68769    -0.02725   0.24572   1.00
C3d      0.78583    -0.04135   0.25130   1.00
C3       0.71534    -0.08354   0.24820   1.00
O2       0.68061    -0.10248   0.24126   1.00
C3       0.78594    -0.08227   0.25276   1.00
H1       0.81392    -0.09657   0.25548   1.00
C2       0.75092    -0.10439   0.25111   1.00
C5       0.78347    0.02121    0.33992   1.00
H2       0.79273    0.05162    0.34682   1.00
H2       0.80674    0.00734    0.32185   1.00
C5       0.77933    -0.00122   0.37794   1.00
H2       0.76902    -0.03129   0.37113   1.00
H2       0.75629    0.01309    0.39590   1.00
C5       0.81816    -0.00254   0.40015   1.00
H2       0.82877    0.02740    0.40681   1.00
H2       0.84083    -0.01803   0.38280   1.00
H2       0.81436    -0.01830   0.42825   1.00
C5       0.83590    -0.01105   0.21961   1.00
C5       0.66174    -0.11070   0.27702   1.00
H2       0.81585    0.00912    0.20397   1.00
H2       0.84120    -0.03712   0.20084   1.00
H2       0.65489    -0.08300   0.29270   1.00
H2       0.68009    -0.12895   0.29693   1.00
H2       0.62583    -0.19055   0.29428   1.00
H2       0.86932    0.05750    0.18370   1.00
H2       0.88924    0.01234    0.16426   1.00
C2       0.75164    0.10395    0.25198   1.00
C3       0.75112    0.08403    0.21592   1.00
O2       0.76079    0.10326    0.18190   1.00
C3       0.74971    0.08174    0.28674   1.00
H1       0.74904    0.09615    0.31477   1.00
C3a      0.74973    0.04287    0.21538   1.00
H1       0.75160    0.02798    0.18762   1.00
C3b      0.74959    0.04078    0.28612   1.00
C4       0.74968    0.02100    0.25028   1.00
O_3      0.82072    -0.02167   0.25638   1.00
C5       0.72678    0.11280    0.16076   1.00
H2       0.70979    0.08609    0.15303   1.00
C5       0.73995    0.13334    0.12335   1.00
H2       0.70762    0.13274    0.17790   1.00
H2       0.74961    0.11077    0.10207   1.00
H2       0.76623    0.15101    0.13068   1.00
C5       0.70790    0.15931    0.10537   1.00
H2       0.68088    0.14189    0.10111   1.00
H2       0.71739    0.17109    0.07661   1.00
H2       0.70141    0.18506    0.12433   1.00
C5       0.87450    0.00980    0.22659   1.00
H2       0.89654    -0.01218   0.23596   1.00
H2       0.87058    0.03045    0.25140   1.00
C5       0.88851    0.03197    0.19011   1.00
H2       0.91850    0.04334    0.19492   1.00
C5       0.76647    0.12406    -0.13227   1.00
H2       0.73860    0.13036    -0.14755   1.00
H2       0.75979    0.10054    -0.11099   1.00
C5       0.79722    0.10996    -0.16219   1.00
H2       0.79318    0.07843    -0.16890   1.00
H2       0.82714    0.11453    -0.15040   1.00
O_3      0.82069    0.24705    0.02000   1.00
C4       0.74958    0.25015    -0.02100   1.00
C3c      0.74749    0.21529    -0.04243   1.00
H1       0.74572    0.18769    -0.02725   1.00
C3d      0.75130    0.28583    -0.04135   1.00
C3       0.74820    0.21534    -0.08354   1.00
O2       0.74126    0.18061    -0.10248   1.00
C3       0.75276    0.28594    -0.08227   1.00
H1       0.75548    0.31392    -0.09657   1.00
C2       0.75111    0.25092    -0.10439   1.00
C5       0.83992    0.28347    0.02121   1.00
H2       0.84682    0.29273    0.05162   1.00
H2       0.82185    0.30674    0.00734   1.00
C5       0.87794    0.27933    -0.00122   1.00
H2       0.87113    0.26902    -0.03129   1.00
H2       0.89590    0.25629    0.01309   1.00
C5       0.90015    0.31816    -0.00254   1.00
H2       0.90681    0.32877    0.02740   1.00
H2       0.88280    0.34083    -0.01803   1.00
H2       0.92825    0.31436    -0.01830   1.00
C5       0.71961    0.33590    -0.01105   1.00
C5       0.77702    0.16174    -0.11070   1.00
H2       0.70397    0.31585    0.00912   1.00
H2       0.70084    0.34120    -0.03712   1.00
H2       0.79270    0.15489    -0.08300   1.00
H2       0.79693    0.18009    -0.12895   1.00
H2       0.79428    0.12583    -0.19055   1.00
H2       0.68370    0.36932    0.05750   1.00
H2       0.66426    0.38924    0.01234   1.00
C2       0.75198    0.25164    0.10395   1.00
C3       0.71592    0.25112    0.08403   1.00
O2       0.68190    0.26079    0.10326   1.00
C3       0.78674    0.24971    0.08174   1.00
H1       0.81477    0.24904    0.09615   1.00
C3a      0.71538    0.24973    0.04287   1.00
H1       0.68762    0.25160    0.02798   1.00
C3b      0.78612    0.24959    0.04078   1.00
C4       0.75028    0.24968    0.02100   1.00
O_3      0.75638    0.32072    -0.02167   1.00
C5       0.66076    0.22678    0.11280   1.00
H2       0.65303    0.20979    0.08609   1.00
C5       0.62335    0.23995    0.13334   1.00
H2       0.67790    0.20762    0.13274   1.00
H2       0.60207    0.24961    0.11077   1.00
H2       0.63068    0.26623    0.15101   1.00
C5       0.60537    0.20790    0.15931   1.00
H2       0.60111    0.18088    0.14189   1.00
H2       0.57661    0.21739    0.17109   1.00
H2       0.62433    0.20141    0.18506   1.00
C5       0.72659    0.37450    0.00980   1.00
H2       0.73596    0.39654    -0.01218   1.00
H2       0.75140    0.37058    0.03045   1.00
C5       0.69011    0.38851    0.03197   1.00
H2       0.69492    0.41850    0.04334   1.00
