data_IRMOF10_SG202_Ligand5_label_k.

_audit_creation_method             'generated by an auxiliary program of Tobunporous'

_symmetry_space_group_name_H-M     'P 1'
_symmetry_Int_Tables_number        1
_symmetry_cell_setting             triclinic

_cell_length_a                    34.2800
_cell_length_b                    34.2800
_cell_length_c                    34.2800
_cell_angle_alpha                 90.0000
_cell_angle_beta                  90.0000
_cell_angle_gamma                 90.0000

loop_
_atom_site_label
_atom_site_fract_x
_atom_site_fract_y
_atom_site_fract_z
_atom_site_occupancy
O1       0.75000    0.75000    0.75000   1.00
Zn1      0.71720    0.78280    0.78280   1.00
Zn1      0.78280    0.71720    0.78280   1.00
Zn1      0.78280    0.78280    0.71720   1.00
Zn1      0.71720    0.71720    0.71720   1.00
O2       0.72650    0.77350    0.83820   1.00
O2       0.72650    0.83820    0.77350   1.00
O2       0.66180    0.77350    0.77350   1.00
O2       0.77350    0.72650    0.83820   1.00
O2       0.83820    0.72650    0.77350   1.00
O2       0.77350    0.66180    0.77350   1.00
O2       0.77350    0.83820    0.72650   1.00
O2       0.83820    0.77350    0.72650   1.00
O2       0.77350    0.77350    0.66180   1.00
O2       0.66180    0.72650    0.72650   1.00
O2       0.72650    0.66180    0.72650   1.00
O2       0.72650    0.72650    0.66180   1.00
C1       0.75000    0.75000    0.85520   1.00
C1       0.75000    0.85520    0.75000   1.00
C1       0.64480    0.75000    0.75000   1.00
C1       0.85520    0.75000    0.75000   1.00
C1       0.75000    0.64480    0.75000   1.00
C1       0.75000    0.75000    0.64480   1.00
O1       0.25000    0.25000    0.75000   1.00
Zn1      0.21720    0.28280    0.78280   1.00
Zn1      0.28280    0.21720    0.78280   1.00
Zn1      0.28280    0.28280    0.71720   1.00
Zn1      0.21720    0.21720    0.71720   1.00
O2       0.22650    0.27350    0.83820   1.00
O2       0.22650    0.33820    0.77350   1.00
O2       0.16180    0.27350    0.77350   1.00
O2       0.27350    0.22650    0.83820   1.00
O2       0.33820    0.22650    0.77350   1.00
O2       0.27350    0.16180    0.77350   1.00
O2       0.27350    0.33820    0.72650   1.00
O2       0.33820    0.27350    0.72650   1.00
O2       0.27350    0.27350    0.66180   1.00
O2       0.16180    0.22650    0.72650   1.00
O2       0.22650    0.16180    0.72650   1.00
O2       0.22650    0.22650    0.66180   1.00
C1       0.25000    0.25000    0.85520   1.00
C1       0.25000    0.35520    0.75000   1.00
C1       0.14480    0.25000    0.75000   1.00
C1       0.35520    0.25000    0.75000   1.00
C1       0.25000    0.14480    0.75000   1.00
C1       0.25000    0.25000    0.64480   1.00
O1       0.25000    0.75000    0.25000   1.00
Zn1      0.21720    0.78280    0.28280   1.00
Zn1      0.28280    0.71720    0.28280   1.00
Zn1      0.28280    0.78280    0.21720   1.00
Zn1      0.21720    0.71720    0.21720   1.00
O2       0.22650    0.77350    0.33820   1.00
O2       0.22650    0.83820    0.27350   1.00
O2       0.16180    0.77350    0.27350   1.00
O2       0.27350    0.72650    0.33820   1.00
O2       0.33820    0.72650    0.27350   1.00
O2       0.27350    0.66180    0.27350   1.00
O2       0.27350    0.83820    0.22650   1.00
O2       0.33820    0.77350    0.22650   1.00
O2       0.27350    0.77350    0.16180   1.00
O2       0.16180    0.72650    0.22650   1.00
O2       0.22650    0.66180    0.22650   1.00
O2       0.22650    0.72650    0.16180   1.00
C1       0.25000    0.75000    0.35520   1.00
C1       0.25000    0.85520    0.25000   1.00
C1       0.14480    0.75000    0.25000   1.00
C1       0.35520    0.75000    0.25000   1.00
C1       0.25000    0.64480    0.25000   1.00
C1       0.25000    0.75000    0.14480   1.00
O1       0.75000    0.25000    0.25000   1.00
Zn1      0.71720    0.28280    0.28280   1.00
Zn1      0.78280    0.21720    0.28280   1.00
Zn1      0.78280    0.28280    0.21720   1.00
Zn1      0.71720    0.21720    0.21720   1.00
O2       0.72650    0.27350    0.33820   1.00
O2       0.72650    0.33820    0.27350   1.00
O2       0.66180    0.27350    0.27350   1.00
O2       0.77350    0.22650    0.33820   1.00
O2       0.83820    0.22650    0.27350   1.00
O2       0.77350    0.16180    0.27350   1.00
O2       0.77350    0.33820    0.22650   1.00
O2       0.83820    0.27350    0.22650   1.00
O2       0.77350    0.27350    0.16180   1.00
O2       0.66180    0.22650    0.22650   1.00
O2       0.72650    0.16180    0.22650   1.00
O2       0.72650    0.22650    0.16180   1.00
C1       0.75000    0.25000    0.35520   1.00
C1       0.75000    0.35520    0.25000   1.00
C1       0.64480    0.25000    0.25000   1.00
C1       0.85520    0.25000    0.25000   1.00
C1       0.75000    0.14480    0.25000   1.00
C1       0.75000    0.25000    0.14480   1.00
O1       0.25000    0.25000    0.25000   1.00
Zn1      0.28280    0.21720    0.21720   1.00
Zn1      0.21720    0.28280    0.21720   1.00
Zn1      0.21720    0.21720    0.28280   1.00
Zn1      0.28280    0.28280    0.28280   1.00
O2       0.27350    0.22650    0.16180   1.00
O2       0.27350    0.16180    0.22650   1.00
O2       0.33820    0.22650    0.22650   1.00
O2       0.22650    0.27350    0.16180   1.00
O2       0.16180    0.27350    0.22650   1.00
O2       0.22650    0.33820    0.22650   1.00
O2       0.22650    0.16180    0.27350   1.00
O2       0.16180    0.22650    0.27350   1.00
O2       0.22650    0.22650    0.33820   1.00
O2       0.33820    0.27350    0.27350   1.00
O2       0.27350    0.33820    0.27350   1.00
O2       0.27350    0.27350    0.33820   1.00
C1       0.25000    0.25000    0.14480   1.00
C1       0.25000    0.14480    0.25000   1.00
C1       0.35520    0.25000    0.25000   1.00
C1       0.14480    0.25000    0.25000   1.00
C1       0.25000    0.35520    0.25000   1.00
C1       0.25000    0.25000    0.35520   1.00
O1       0.75000    0.75000    0.25000   1.00
Zn1      0.78280    0.71720    0.21720   1.00
Zn1      0.71720    0.78280    0.21720   1.00
Zn1      0.71720    0.71720    0.28280   1.00
Zn1      0.78280    0.78280    0.28280   1.00
O2       0.77350    0.72650    0.16180   1.00
O2       0.77350    0.66180    0.22650   1.00
O2       0.83820    0.72650    0.22650   1.00
O2       0.72650    0.77350    0.16180   1.00
O2       0.66180    0.77350    0.22650   1.00
O2       0.72650    0.83820    0.22650   1.00
O2       0.72650    0.66180    0.27350   1.00
O2       0.66180    0.72650    0.27350   1.00
O2       0.72650    0.72650    0.33820   1.00
O2       0.83820    0.77350    0.27350   1.00
O2       0.77350    0.83820    0.27350   1.00
O2       0.77350    0.77350    0.33820   1.00
C1       0.75000    0.75000    0.14480   1.00
C1       0.75000    0.64480    0.25000   1.00
C1       0.85520    0.75000    0.25000   1.00
C1       0.64480    0.75000    0.25000   1.00
C1       0.75000    0.85520    0.25000   1.00
C1       0.75000    0.75000    0.35520   1.00
O1       0.75000    0.25000    0.75000   1.00
Zn1      0.78280    0.21720    0.71720   1.00
Zn1      0.71720    0.28280    0.71720   1.00
Zn1      0.71720    0.21720    0.78280   1.00
Zn1      0.78280    0.28280    0.78280   1.00
O2       0.77350    0.22650    0.66180   1.00
O2       0.77350    0.16180    0.72650   1.00
O2       0.83820    0.22650    0.72650   1.00
O2       0.72650    0.27350    0.66180   1.00
O2       0.66180    0.27350    0.72650   1.00
O2       0.72650    0.33820    0.72650   1.00
O2       0.72650    0.16180    0.77350   1.00
O2       0.66180    0.22650    0.77350   1.00
O2       0.72650    0.22650    0.83820   1.00
O2       0.83820    0.27350    0.77350   1.00
O2       0.77350    0.33820    0.77350   1.00
O2       0.77350    0.27350    0.83820   1.00
C1       0.75000    0.25000    0.64480   1.00
C1       0.75000    0.14480    0.75000   1.00
C1       0.85520    0.25000    0.75000   1.00
C1       0.64480    0.25000    0.75000   1.00
C1       0.75000    0.35520    0.75000   1.00
C1       0.75000    0.25000    0.85520   1.00
O1       0.25000    0.75000    0.75000   1.00
Zn1      0.28280    0.71720    0.71720   1.00
Zn1      0.21720    0.78280    0.71720   1.00
Zn1      0.21720    0.71720    0.78280   1.00
Zn1      0.28280    0.78280    0.78280   1.00
O2       0.27350    0.72650    0.66180   1.00
O2       0.27350    0.66180    0.72650   1.00
O2       0.33820    0.72650    0.72650   1.00
O2       0.22650    0.77350    0.66180   1.00
O2       0.16180    0.77350    0.72650   1.00
O2       0.22650    0.83820    0.72650   1.00
O2       0.22650    0.66180    0.77350   1.00
O2       0.16180    0.72650    0.77350   1.00
O2       0.22650    0.72650    0.83820   1.00
O2       0.33820    0.77350    0.77350   1.00
O2       0.27350    0.83820    0.77350   1.00
O2       0.27350    0.77350    0.83820   1.00
C1       0.25000    0.75000    0.64480   1.00
C1       0.25000    0.64480    0.75000   1.00
C1       0.35520    0.75000    0.75000   1.00
C1       0.14480    0.75000    0.75000   1.00
C1       0.25000    0.85520    0.75000   1.00
C1       0.25000    0.75000    0.85520   1.00
C5       0.86739    0.70150    1.13227   1.00
H2       0.86851    0.73005    1.14755   1.00
H2       0.89184    0.70187    1.11099   1.00
C5       0.87305    0.66815    1.16219   1.00
H2       0.90455    0.66390    1.16890   1.00
H2       0.86089    0.64044    1.15040   1.00
O_3      0.73455    0.68095    0.98000   1.00
C4       0.74996    0.75044    1.02100   1.00
C3c      0.78418    0.74344    1.04243   1.00
H1       0.81129    0.73801    1.02725   1.00
C3d      0.71506    0.75801    1.04135   1.00
C3       0.78395    0.74277    1.08354   1.00
O2       0.81929    0.74049    1.10248   1.00
C3       0.71457    0.75663    1.08227   1.00
H1       0.68684    0.76124    1.09657   1.00
C2       0.74882    0.74917    1.10439   1.00
C5       0.69440    0.67180    0.97879   1.00
H2       0.68367    0.66753    0.94838   1.00
H2       0.67660    0.69528    0.99266   1.00
C5       0.68856    0.63400    1.00122   1.00
H2       0.70029    0.63792    1.03129   1.00
H2       0.70617    0.61070    0.98691   1.00
C5       0.64530    0.62260    1.00254   1.00
H2       0.63334    0.61891    0.97260   1.00
H2       0.62790    0.64522    1.01803   1.00
H2       0.64171    0.59447    1.01830   1.00
C5       0.67489    0.80159    1.01105   1.00
C5       0.82826    0.70106    1.11070   1.00
H2       0.69830    0.81150    0.99088   1.00
H2       0.67462    0.82109    1.03712   1.00
H2       0.83083    0.68414    1.08300   1.00
H2       0.80539    0.68658    1.12895   1.00
H2       0.85848    0.67510    1.19055   1.00
H2       0.65190    0.84492    0.94250   1.00
H2       0.63769    0.86885    0.98766   1.00
C2       0.74790    0.74851    0.89605   1.00
C3       0.75774    0.78321    0.91597   1.00
O2       0.75719    0.81857    0.89674   1.00
C3       0.74077    0.71444    0.91826   1.00
H1       0.73417    0.68718    0.90385   1.00
C3a      0.75922    0.78337    0.95713   1.00
H1       0.76460    0.81067    0.97202   1.00
C3b      0.74105    0.71500    0.95922   1.00
C4       0.75023    0.74965    0.97900   1.00
O_3      0.68004    0.76214    1.02167   1.00
C5       0.79552    0.83019    0.88720   1.00
H2       0.81394    0.83327    0.91391   1.00
C5       0.79248    0.86974    0.86666   1.00
H2       0.80959    0.80868    0.86726   1.00
H2       0.78865    0.89279    0.88923   1.00
H2       0.76519    0.86945    0.84899   1.00
C5       0.82809    0.87881    0.84069   1.00
H2       0.85529    0.87593    0.85811   1.00
H2       0.82636    0.90904    0.82891   1.00
H2       0.82946    0.85881    0.81494   1.00
C5       0.63579    0.80483    0.99020   1.00
H2       0.61209    0.80148    1.01218   1.00
H2       0.63316    0.77985    0.96955   1.00
C5       0.63170    0.84369    0.96803   1.00
H2       0.60149    0.84680    0.95666   1.00
C5       0.70150    1.13227    0.86739   1.00
H2       0.73005    1.14755    0.86851   1.00
H2       0.70187    1.11099    0.89184   1.00
C5       0.66815    1.16219    0.87305   1.00
H2       0.66390    1.16890    0.90455   1.00
H2       0.64044    1.15040    0.86089   1.00
O_3      0.68095    0.98000    0.73455   1.00
C4       0.75044    1.02100    0.74996   1.00
C3c      0.74344    1.04243    0.78418   1.00
H1       0.73801    1.02725    0.81129   1.00
C3d      0.75801    1.04135    0.71506   1.00
C3       0.74277    1.08354    0.78395   1.00
O2       0.74049    1.10248    0.81929   1.00
C3       0.75663    1.08227    0.71457   1.00
H1       0.76124    1.09657    0.68684   1.00
C2       0.74917    1.10439    0.74882   1.00
C5       0.67180    0.97879    0.69440   1.00
H2       0.66753    0.94838    0.68367   1.00
H2       0.69528    0.99266    0.67660   1.00
C5       0.63400    1.00122    0.68856   1.00
H2       0.63792    1.03129    0.70029   1.00
H2       0.61070    0.98691    0.70617   1.00
C5       0.62260    1.00254    0.64530   1.00
H2       0.61891    0.97260    0.63334   1.00
H2       0.64522    1.01803    0.62790   1.00
H2       0.59447    1.01830    0.64171   1.00
C5       0.80159    1.01105    0.67489   1.00
C5       0.70106    1.11070    0.82826   1.00
H2       0.81150    0.99088    0.69830   1.00
H2       0.82109    1.03712    0.67462   1.00
H2       0.68414    1.08300    0.83083   1.00
H2       0.68658    1.12895    0.80539   1.00
H2       0.67510    1.19055    0.85848   1.00
H2       0.84492    0.94250    0.65190   1.00
H2       0.86885    0.98766    0.63769   1.00
C2       0.74851    0.89605    0.74790   1.00
C3       0.78321    0.91597    0.75774   1.00
O2       0.81857    0.89674    0.75719   1.00
C3       0.71444    0.91826    0.74077   1.00
H1       0.68718    0.90385    0.73417   1.00
C3a      0.78337    0.95713    0.75922   1.00
H1       0.81067    0.97202    0.76460   1.00
C3b      0.71500    0.95922    0.74105   1.00
C4       0.74965    0.97900    0.75023   1.00
O_3      0.76214    1.02167    0.68004   1.00
C5       0.83019    0.88720    0.79552   1.00
H2       0.83327    0.91391    0.81394   1.00
C5       0.86974    0.86666    0.79248   1.00
H2       0.80868    0.86726    0.80959   1.00
H2       0.89279    0.88923    0.78865   1.00
H2       0.86945    0.84899    0.76519   1.00
C5       0.87881    0.84069    0.82809   1.00
H2       0.87593    0.85811    0.85529   1.00
H2       0.90904    0.82891    0.82636   1.00
H2       0.85881    0.81494    0.82946   1.00
C5       0.80483    0.99020    0.63579   1.00
H2       0.80148    1.01218    0.61209   1.00
H2       0.77985    0.96955    0.63316   1.00
C5       0.84369    0.96803    0.63170   1.00
H2       0.84680    0.95666    0.60149   1.00
C5       0.36773    0.86739    0.79850   1.00
H2       0.35245    0.86851    0.76995   1.00
H2       0.38901    0.89184    0.79813   1.00
C5       0.33781    0.87305    0.83185   1.00
H2       0.33110    0.90455    0.83610   1.00
H2       0.34960    0.86089    0.85956   1.00
O_3      0.52000    0.73455    0.81905   1.00
C4       0.47900    0.74996    0.74956   1.00
C3c      0.45757    0.78418    0.75656   1.00
H1       0.47275    0.81129    0.76199   1.00
C3d      0.45865    0.71506    0.74199   1.00
C3       0.41646    0.78395    0.75723   1.00
O2       0.39752    0.81929    0.75951   1.00
C3       0.41773    0.71457    0.74337   1.00
H1       0.40343    0.68684    0.73876   1.00
C2       0.39561    0.74882    0.75083   1.00
C5       0.52121    0.69440    0.82820   1.00
H2       0.55162    0.68367    0.83247   1.00
H2       0.50734    0.67660    0.80472   1.00
C5       0.49878    0.68856    0.86600   1.00
H2       0.46871    0.70029    0.86208   1.00
H2       0.51309    0.70617    0.88930   1.00
C5       0.49746    0.64530    0.87740   1.00
H2       0.52740    0.63334    0.88109   1.00
H2       0.48197    0.62790    0.85478   1.00
H2       0.48170    0.64171    0.90553   1.00
C5       0.48895    0.67489    0.69841   1.00
C5       0.38930    0.82826    0.79894   1.00
H2       0.50912    0.69830    0.68850   1.00
H2       0.46288    0.67462    0.67891   1.00
H2       0.41700    0.83083    0.81586   1.00
H2       0.37105    0.80539    0.81342   1.00
H2       0.30945    0.85848    0.82490   1.00
H2       0.55750    0.65190    0.65508   1.00
H2       0.51234    0.63769    0.63115   1.00
C2       0.60395    0.74790    0.75149   1.00
C3       0.58403    0.75774    0.71679   1.00
O2       0.60326    0.75719    0.68143   1.00
C3       0.58174    0.74077    0.78556   1.00
H1       0.59615    0.73417    0.81282   1.00
C3a      0.54287    0.75922    0.71663   1.00
H1       0.52798    0.76460    0.68933   1.00
C3b      0.54078    0.74105    0.78500   1.00
C4       0.52100    0.75023    0.75035   1.00
O_3      0.47833    0.68004    0.73786   1.00
C5       0.61280    0.79552    0.66981   1.00
H2       0.58609    0.81394    0.66673   1.00
C5       0.63334    0.79248    0.63026   1.00
H2       0.63274    0.80959    0.69132   1.00
H2       0.61077    0.78865    0.60721   1.00
H2       0.65101    0.76519    0.63055   1.00
C5       0.65931    0.82809    0.62119   1.00
H2       0.64189    0.85529    0.62407   1.00
H2       0.67109    0.82636    0.59096   1.00
H2       0.68506    0.82946    0.64119   1.00
C5       0.50980    0.63579    0.69517   1.00
H2       0.48782    0.61209    0.69852   1.00
H2       0.53045    0.63316    0.72015   1.00
C5       0.53197    0.63170    0.65631   1.00
H2       0.54334    0.60149    0.65320   1.00
C5       1.13227    0.86739    0.70150   1.00
H2       1.14755    0.86851    0.73005   1.00
H2       1.11099    0.89184    0.70187   1.00
C5       1.16219    0.87305    0.66815   1.00
H2       1.16890    0.90455    0.66390   1.00
H2       1.15040    0.86089    0.64044   1.00
O_3      0.98000    0.73455    0.68095   1.00
C4       1.02100    0.74996    0.75044   1.00
C3c      1.04243    0.78418    0.74344   1.00
H1       1.02725    0.81129    0.73801   1.00
C3d      1.04135    0.71506    0.75801   1.00
C3       1.08354    0.78395    0.74277   1.00
O2       1.10248    0.81929    0.74049   1.00
C3       1.08227    0.71457    0.75663   1.00
H1       1.09657    0.68684    0.76124   1.00
C2       1.10439    0.74882    0.74917   1.00
C5       0.97879    0.69440    0.67180   1.00
H2       0.94838    0.68367    0.66753   1.00
H2       0.99266    0.67660    0.69528   1.00
C5       1.00122    0.68856    0.63400   1.00
H2       1.03129    0.70029    0.63792   1.00
H2       0.98691    0.70617    0.61070   1.00
C5       1.00254    0.64530    0.62260   1.00
H2       0.97260    0.63334    0.61891   1.00
H2       1.01803    0.62790    0.64522   1.00
H2       1.01830    0.64171    0.59447   1.00
C5       1.01105    0.67489    0.80159   1.00
C5       1.11070    0.82826    0.70106   1.00
H2       0.99088    0.69830    0.81150   1.00
H2       1.03712    0.67462    0.82109   1.00
H2       1.08300    0.83083    0.68414   1.00
H2       1.12895    0.80539    0.68658   1.00
H2       1.19055    0.85848    0.67510   1.00
H2       0.94250    0.65190    0.84492   1.00
H2       0.98766    0.63769    0.86885   1.00
C2       0.89605    0.74790    0.74851   1.00
C3       0.91597    0.75774    0.78321   1.00
O2       0.89674    0.75719    0.81857   1.00
C3       0.91826    0.74077    0.71444   1.00
H1       0.90385    0.73417    0.68718   1.00
C3a      0.95713    0.75922    0.78337   1.00
H1       0.97202    0.76460    0.81067   1.00
C3b      0.95922    0.74105    0.71500   1.00
C4       0.97900    0.75023    0.74965   1.00
O_3      1.02167    0.68004    0.76214   1.00
C5       0.88720    0.79552    0.83019   1.00
H2       0.91391    0.81394    0.83327   1.00
C5       0.86666    0.79248    0.86974   1.00
H2       0.86726    0.80959    0.80868   1.00
H2       0.88923    0.78865    0.89279   1.00
H2       0.84899    0.76519    0.86945   1.00
C5       0.84069    0.82809    0.87881   1.00
H2       0.85811    0.85529    0.87593   1.00
H2       0.82891    0.82636    0.90904   1.00
H2       0.81494    0.82946    0.85881   1.00
C5       0.99020    0.63579    0.80483   1.00
H2       1.01218    0.61209    0.80148   1.00
H2       0.96955    0.63316    0.77985   1.00
C5       0.96803    0.63170    0.84369   1.00
H2       0.95666    0.60149    0.84680   1.00
C5       0.79850    0.36773    0.86739   1.00
H2       0.76995    0.35245    0.86851   1.00
H2       0.79813    0.38901    0.89184   1.00
C5       0.83185    0.33781    0.87305   1.00
H2       0.83610    0.33110    0.90455   1.00
H2       0.85956    0.34960    0.86089   1.00
O_3      0.81905    0.52000    0.73455   1.00
C4       0.74956    0.47900    0.74996   1.00
C3c      0.75656    0.45757    0.78418   1.00
H1       0.76199    0.47275    0.81129   1.00
C3d      0.74199    0.45865    0.71506   1.00
C3       0.75723    0.41646    0.78395   1.00
O2       0.75951    0.39752    0.81929   1.00
C3       0.74337    0.41773    0.71457   1.00
H1       0.73876    0.40343    0.68684   1.00
C2       0.75083    0.39561    0.74882   1.00
C5       0.82820    0.52121    0.69440   1.00
H2       0.83247    0.55162    0.68367   1.00
H2       0.80472    0.50734    0.67660   1.00
C5       0.86600    0.49878    0.68856   1.00
H2       0.86208    0.46871    0.70029   1.00
H2       0.88930    0.51309    0.70617   1.00
C5       0.87740    0.49746    0.64530   1.00
H2       0.88109    0.52740    0.63334   1.00
H2       0.85478    0.48197    0.62790   1.00
H2       0.90553    0.48170    0.64171   1.00
C5       0.69841    0.48895    0.67489   1.00
C5       0.79894    0.38930    0.82826   1.00
H2       0.68850    0.50912    0.69830   1.00
H2       0.67891    0.46288    0.67462   1.00
H2       0.81586    0.41700    0.83083   1.00
H2       0.81342    0.37105    0.80539   1.00
H2       0.82490    0.30945    0.85848   1.00
H2       0.65508    0.55750    0.65190   1.00
H2       0.63115    0.51234    0.63769   1.00
C2       0.75149    0.60395    0.74790   1.00
C3       0.71679    0.58403    0.75774   1.00
O2       0.68143    0.60326    0.75719   1.00
C3       0.78556    0.58174    0.74077   1.00
H1       0.81282    0.59615    0.73417   1.00
C3a      0.71663    0.54287    0.75922   1.00
H1       0.68933    0.52798    0.76460   1.00
C3b      0.78500    0.54078    0.74105   1.00
C4       0.75035    0.52100    0.75023   1.00
O_3      0.73786    0.47833    0.68004   1.00
C5       0.66981    0.61280    0.79552   1.00
H2       0.66673    0.58609    0.81394   1.00
C5       0.63026    0.63334    0.79248   1.00
H2       0.69132    0.63274    0.80959   1.00
H2       0.60721    0.61077    0.78865   1.00
H2       0.63055    0.65101    0.76519   1.00
C5       0.62119    0.65931    0.82809   1.00
H2       0.62407    0.64189    0.85529   1.00
H2       0.59096    0.67109    0.82636   1.00
H2       0.64119    0.68506    0.82946   1.00
C5       0.69517    0.50980    0.63579   1.00
H2       0.69852    0.48782    0.61209   1.00
H2       0.72015    0.53045    0.63316   1.00
C5       0.65631    0.53197    0.63170   1.00
H2       0.65320    0.54334    0.60149   1.00
C5       0.86739    0.79850    0.36773   1.00
H2       0.86851    0.76995    0.35245   1.00
H2       0.89184    0.79813    0.38901   1.00
C5       0.87305    0.83185    0.33781   1.00
H2       0.90455    0.83610    0.33110   1.00
H2       0.86089    0.85956    0.34960   1.00
O_3      0.73455    0.81905    0.52000   1.00
C4       0.74996    0.74956    0.47900   1.00
C3c      0.78418    0.75656    0.45757   1.00
H1       0.81129    0.76199    0.47275   1.00
C3d      0.71506    0.74199    0.45865   1.00
C3       0.78395    0.75723    0.41646   1.00
O2       0.81929    0.75951    0.39752   1.00
C3       0.71457    0.74337    0.41773   1.00
H1       0.68684    0.73876    0.40343   1.00
C2       0.74882    0.75083    0.39561   1.00
C5       0.69440    0.82820    0.52121   1.00
H2       0.68367    0.83247    0.55162   1.00
H2       0.67660    0.80472    0.50734   1.00
C5       0.68856    0.86600    0.49878   1.00
H2       0.70029    0.86208    0.46871   1.00
H2       0.70617    0.88930    0.51309   1.00
C5       0.64530    0.87740    0.49746   1.00
H2       0.63334    0.88109    0.52740   1.00
H2       0.62790    0.85478    0.48197   1.00
H2       0.64171    0.90553    0.48170   1.00
C5       0.67489    0.69841    0.48895   1.00
C5       0.82826    0.79894    0.38930   1.00
H2       0.69830    0.68850    0.50912   1.00
H2       0.67462    0.67891    0.46288   1.00
H2       0.83083    0.81586    0.41700   1.00
H2       0.80539    0.81342    0.37105   1.00
H2       0.85848    0.82490    0.30945   1.00
H2       0.65190    0.65508    0.55750   1.00
H2       0.63769    0.63115    0.51234   1.00
C2       0.74790    0.75149    0.60395   1.00
C3       0.75774    0.71679    0.58403   1.00
O2       0.75719    0.68143    0.60326   1.00
C3       0.74077    0.78556    0.58174   1.00
H1       0.73417    0.81282    0.59615   1.00
C3a      0.75922    0.71663    0.54287   1.00
H1       0.76460    0.68933    0.52798   1.00
C3b      0.74105    0.78500    0.54078   1.00
C4       0.75023    0.75035    0.52100   1.00
O_3      0.68004    0.73786    0.47833   1.00
C5       0.79552    0.66981    0.61280   1.00
H2       0.81394    0.66673    0.58609   1.00
C5       0.79248    0.63026    0.63334   1.00
H2       0.80959    0.69132    0.63274   1.00
H2       0.78865    0.60721    0.61077   1.00
H2       0.76519    0.63055    0.65101   1.00
C5       0.82809    0.62119    0.65931   1.00
H2       0.85529    0.62407    0.64189   1.00
H2       0.82636    0.59096    0.67109   1.00
H2       0.82946    0.64119    0.68506   1.00
C5       0.63579    0.69517    0.50980   1.00
H2       0.61209    0.69852    0.48782   1.00
H2       0.63316    0.72015    0.53045   1.00
C5       0.63170    0.65631    0.53197   1.00
H2       0.60149    0.65320    0.54334   1.00
C5       0.36739    0.20150    1.13227   1.00
H2       0.36851    0.23005    1.14755   1.00
H2       0.39184    0.20187    1.11099   1.00
C5       0.37305    0.16815    1.16219   1.00
H2       0.40455    0.16390    1.16890   1.00
H2       0.36089    0.14044    1.15040   1.00
O_3      0.23455    0.18095    0.98000   1.00
C4       0.24996    0.25044    1.02100   1.00
C3c      0.28418    0.24344    1.04243   1.00
H1       0.31129    0.23801    1.02725   1.00
C3d      0.21506    0.25801    1.04135   1.00
C3       0.28395    0.24277    1.08354   1.00
O2       0.31929    0.24049    1.10248   1.00
C3       0.21457    0.25663    1.08227   1.00
H1       0.18684    0.26124    1.09657   1.00
C2       0.24882    0.24917    1.10439   1.00
C5       0.19440    0.17180    0.97879   1.00
H2       0.18367    0.16753    0.94838   1.00
H2       0.17660    0.19528    0.99266   1.00
C5       0.18856    0.13400    1.00122   1.00
H2       0.20029    0.13792    1.03129   1.00
H2       0.20617    0.11070    0.98691   1.00
C5       0.14530    0.12260    1.00254   1.00
H2       0.13334    0.11891    0.97260   1.00
H2       0.12790    0.14522    1.01803   1.00
H2       0.14171    0.09447    1.01830   1.00
C5       0.17489    0.30159    1.01105   1.00
C5       0.32826    0.20106    1.11070   1.00
H2       0.19830    0.31150    0.99088   1.00
H2       0.17462    0.32109    1.03712   1.00
H2       0.33083    0.18414    1.08300   1.00
H2       0.30539    0.18658    1.12895   1.00
H2       0.35848    0.17510    1.19055   1.00
H2       0.15190    0.34492    0.94250   1.00
H2       0.13769    0.36885    0.98766   1.00
C2       0.24790    0.24851    0.89605   1.00
C3       0.25774    0.28321    0.91597   1.00
O2       0.25719    0.31857    0.89674   1.00
C3       0.24077    0.21444    0.91826   1.00
H1       0.23417    0.18718    0.90385   1.00
C3a      0.25922    0.28337    0.95713   1.00
H1       0.26460    0.31067    0.97202   1.00
C3b      0.24105    0.21500    0.95922   1.00
C4       0.25023    0.24965    0.97900   1.00
O_3      0.18004    0.26214    1.02167   1.00
C5       0.29552    0.33019    0.88720   1.00
H2       0.31394    0.33327    0.91391   1.00
C5       0.29248    0.36974    0.86666   1.00
H2       0.30959    0.30868    0.86726   1.00
H2       0.28865    0.39279    0.88923   1.00
H2       0.26519    0.36945    0.84899   1.00
C5       0.32809    0.37881    0.84069   1.00
H2       0.35529    0.37593    0.85811   1.00
H2       0.32636    0.40904    0.82891   1.00
H2       0.32946    0.35881    0.81494   1.00
C5       0.13579    0.30483    0.99020   1.00
H2       0.11209    0.30148    1.01218   1.00
H2       0.13316    0.27985    0.96955   1.00
C5       0.13170    0.34369    0.96803   1.00
H2       0.10149    0.34680    0.95666   1.00
C5       0.20150    0.63227    0.86739   1.00
H2       0.23005    0.64755    0.86851   1.00
H2       0.20187    0.61099    0.89184   1.00
C5       0.16815    0.66219    0.87305   1.00
H2       0.16390    0.66890    0.90455   1.00
H2       0.14044    0.65040    0.86089   1.00
O_3      0.18095    0.48000    0.73455   1.00
C4       0.25044    0.52100    0.74996   1.00
C3c      0.24344    0.54243    0.78418   1.00
H1       0.23801    0.52725    0.81129   1.00
C3d      0.25801    0.54135    0.71506   1.00
C3       0.24277    0.58354    0.78395   1.00
O2       0.24049    0.60248    0.81929   1.00
C3       0.25663    0.58227    0.71457   1.00
H1       0.26124    0.59657    0.68684   1.00
C2       0.24917    0.60439    0.74882   1.00
C5       0.17180    0.47879    0.69440   1.00
H2       0.16753    0.44838    0.68367   1.00
H2       0.19528    0.49266    0.67660   1.00
C5       0.13400    0.50122    0.68856   1.00
H2       0.13792    0.53129    0.70029   1.00
H2       0.11070    0.48691    0.70617   1.00
C5       0.12260    0.50254    0.64530   1.00
H2       0.11891    0.47260    0.63334   1.00
H2       0.14522    0.51803    0.62790   1.00
H2       0.09447    0.51830    0.64171   1.00
C5       0.30159    0.51105    0.67489   1.00
C5       0.20106    0.61070    0.82826   1.00
H2       0.31150    0.49088    0.69830   1.00
H2       0.32109    0.53712    0.67462   1.00
H2       0.18414    0.58300    0.83083   1.00
H2       0.18658    0.62895    0.80539   1.00
H2       0.17510    0.69055    0.85848   1.00
H2       0.34492    0.44250    0.65190   1.00
H2       0.36885    0.48766    0.63769   1.00
C2       0.24851    0.39605    0.74790   1.00
C3       0.28321    0.41597    0.75774   1.00
O2       0.31857    0.39674    0.75719   1.00
C3       0.21444    0.41826    0.74077   1.00
H1       0.18718    0.40385    0.73417   1.00
C3a      0.28337    0.45713    0.75922   1.00
H1       0.31067    0.47202    0.76460   1.00
C3b      0.21500    0.45922    0.74105   1.00
C4       0.24965    0.47900    0.75023   1.00
O_3      0.26214    0.52167    0.68004   1.00
C5       0.33019    0.38720    0.79552   1.00
H2       0.33327    0.41391    0.81394   1.00
C5       0.36974    0.36666    0.79248   1.00
H2       0.30868    0.36726    0.80959   1.00
H2       0.39279    0.38923    0.78865   1.00
H2       0.36945    0.34899    0.76519   1.00
C5       0.37881    0.34069    0.82809   1.00
H2       0.37593    0.35811    0.85529   1.00
H2       0.40904    0.32891    0.82636   1.00
H2       0.35881    0.31494    0.82946   1.00
C5       0.30483    0.49020    0.63579   1.00
H2       0.30148    0.51218    0.61209   1.00
H2       0.27985    0.46955    0.63316   1.00
C5       0.34369    0.46803    0.63170   1.00
H2       0.34680    0.45666    0.60149   1.00
C5       -0.13227   0.36739    0.79850   1.00
H2       -0.14755   0.36851    0.76995   1.00
H2       -0.11099   0.39184    0.79813   1.00
C5       -0.16219   0.37305    0.83185   1.00
H2       -0.16890   0.40455    0.83610   1.00
H2       -0.15040   0.36089    0.85956   1.00
O_3      0.02000    0.23455    0.81905   1.00
C4       -0.02100   0.24996    0.74956   1.00
C3c      -0.04243   0.28418    0.75656   1.00
H1       -0.02725   0.31129    0.76199   1.00
C3d      -0.04135   0.21506    0.74199   1.00
C3       -0.08354   0.28395    0.75723   1.00
O2       -0.10248   0.31929    0.75951   1.00
C3       -0.08227   0.21457    0.74337   1.00
H1       -0.09657   0.18684    0.73876   1.00
C2       -0.10439   0.24882    0.75083   1.00
C5       0.02121    0.19440    0.82820   1.00
H2       0.05162    0.18367    0.83247   1.00
H2       0.00734    0.17660    0.80472   1.00
C5       -0.00122   0.18856    0.86600   1.00
H2       -0.03129   0.20029    0.86208   1.00
H2       0.01309    0.20617    0.88930   1.00
C5       -0.00254   0.14530    0.87740   1.00
H2       0.02740    0.13334    0.88109   1.00
H2       -0.01803   0.12790    0.85478   1.00
H2       -0.01830   0.14171    0.90553   1.00
C5       -0.01105   0.17489    0.69841   1.00
C5       -0.11070   0.32826    0.79894   1.00
H2       0.00912    0.19830    0.68850   1.00
H2       -0.03712   0.17462    0.67891   1.00
H2       -0.08300   0.33083    0.81586   1.00
H2       -0.12895   0.30539    0.81342   1.00
H2       -0.19055   0.35848    0.82490   1.00
H2       0.05750    0.15190    0.65508   1.00
H2       0.01234    0.13769    0.63115   1.00
C2       0.10395    0.24790    0.75149   1.00
C3       0.08403    0.25774    0.71679   1.00
O2       0.10326    0.25719    0.68143   1.00
C3       0.08174    0.24077    0.78556   1.00
H1       0.09615    0.23417    0.81282   1.00
C3a      0.04287    0.25922    0.71663   1.00
H1       0.02798    0.26460    0.68933   1.00
C3b      0.04078    0.24105    0.78500   1.00
C4       0.02100    0.25023    0.75035   1.00
O_3      -0.02167   0.18004    0.73786   1.00
C5       0.11280    0.29552    0.66981   1.00
H2       0.08609    0.31394    0.66673   1.00
C5       0.13334    0.29248    0.63026   1.00
H2       0.13274    0.30959    0.69132   1.00
H2       0.11077    0.28865    0.60721   1.00
H2       0.15101    0.26519    0.63055   1.00
C5       0.15931    0.32809    0.62119   1.00
H2       0.14189    0.35529    0.62407   1.00
H2       0.17109    0.32636    0.59096   1.00
H2       0.18506    0.32946    0.64119   1.00
C5       0.00980    0.13579    0.69517   1.00
H2       -0.01218   0.11209    0.69852   1.00
H2       0.03045    0.13316    0.72015   1.00
C5       0.03197    0.13170    0.65631   1.00
H2       0.04334    0.10149    0.65320   1.00
C5       0.63227    0.36739    0.70150   1.00
H2       0.64755    0.36851    0.73005   1.00
H2       0.61099    0.39184    0.70187   1.00
C5       0.66219    0.37305    0.66815   1.00
H2       0.66890    0.40455    0.66390   1.00
H2       0.65040    0.36089    0.64044   1.00
O_3      0.48000    0.23455    0.68095   1.00
C4       0.52100    0.24996    0.75044   1.00
C3c      0.54243    0.28418    0.74344   1.00
H1       0.52725    0.31129    0.73801   1.00
C3d      0.54135    0.21506    0.75801   1.00
C3       0.58354    0.28395    0.74277   1.00
O2       0.60248    0.31929    0.74049   1.00
C3       0.58227    0.21457    0.75663   1.00
H1       0.59657    0.18684    0.76124   1.00
C2       0.60439    0.24882    0.74917   1.00
C5       0.47879    0.19440    0.67180   1.00
H2       0.44838    0.18367    0.66753   1.00
H2       0.49266    0.17660    0.69528   1.00
C5       0.50122    0.18856    0.63400   1.00
H2       0.53129    0.20029    0.63792   1.00
H2       0.48691    0.20617    0.61070   1.00
C5       0.50254    0.14530    0.62260   1.00
H2       0.47260    0.13334    0.61891   1.00
H2       0.51803    0.12790    0.64522   1.00
H2       0.51830    0.14171    0.59447   1.00
C5       0.51105    0.17489    0.80159   1.00
C5       0.61070    0.32826    0.70106   1.00
H2       0.49088    0.19830    0.81150   1.00
H2       0.53712    0.17462    0.82109   1.00
H2       0.58300    0.33083    0.68414   1.00
H2       0.62895    0.30539    0.68658   1.00
H2       0.69055    0.35848    0.67510   1.00
H2       0.44250    0.15190    0.84492   1.00
H2       0.48766    0.13769    0.86885   1.00
C2       0.39605    0.24790    0.74851   1.00
C3       0.41597    0.25774    0.78321   1.00
O2       0.39674    0.25719    0.81857   1.00
C3       0.41826    0.24077    0.71444   1.00
H1       0.40385    0.23417    0.68718   1.00
C3a      0.45713    0.25922    0.78337   1.00
H1       0.47202    0.26460    0.81067   1.00
C3b      0.45922    0.24105    0.71500   1.00
C4       0.47900    0.25023    0.74965   1.00
O_3      0.52167    0.18004    0.76214   1.00
C5       0.38720    0.29552    0.83019   1.00
H2       0.41391    0.31394    0.83327   1.00
C5       0.36666    0.29248    0.86974   1.00
H2       0.36726    0.30959    0.80868   1.00
H2       0.38923    0.28865    0.89279   1.00
H2       0.34899    0.26519    0.86945   1.00
C5       0.34069    0.32809    0.87881   1.00
H2       0.35811    0.35529    0.87593   1.00
H2       0.32891    0.32636    0.90904   1.00
H2       0.31494    0.32946    0.85881   1.00
C5       0.49020    0.13579    0.80483   1.00
H2       0.51218    0.11209    0.80148   1.00
H2       0.46955    0.13316    0.77985   1.00
C5       0.46803    0.13170    0.84369   1.00
H2       0.45666    0.10149    0.84680   1.00
C5       0.29850    -0.13227   0.86739   1.00
H2       0.26995    -0.14755   0.86851   1.00
H2       0.29813    -0.11099   0.89184   1.00
C5       0.33185    -0.16219   0.87305   1.00
H2       0.33610    -0.16890   0.90455   1.00
H2       0.35956    -0.15040   0.86089   1.00
O_3      0.31905    0.02000    0.73455   1.00
C4       0.24956    -0.02100   0.74996   1.00
C3c      0.25656    -0.04243   0.78418   1.00
H1       0.26199    -0.02725   0.81129   1.00
C3d      0.24199    -0.04135   0.71506   1.00
C3       0.25723    -0.08354   0.78395   1.00
O2       0.25951    -0.10248   0.81929   1.00
C3       0.24337    -0.08227   0.71457   1.00
H1       0.23876    -0.09657   0.68684   1.00
C2       0.25083    -0.10439   0.74882   1.00
C5       0.32820    0.02121    0.69440   1.00
H2       0.33247    0.05162    0.68367   1.00
H2       0.30472    0.00734    0.67660   1.00
C5       0.36600    -0.00122   0.68856   1.00
H2       0.36208    -0.03129   0.70029   1.00
H2       0.38930    0.01309    0.70617   1.00
C5       0.37740    -0.00254   0.64530   1.00
H2       0.38109    0.02740    0.63334   1.00
H2       0.35478    -0.01803   0.62790   1.00
H2       0.40553    -0.01830   0.64171   1.00
C5       0.19841    -0.01105   0.67489   1.00
C5       0.29894    -0.11070   0.82826   1.00
H2       0.18850    0.00912    0.69830   1.00
H2       0.17891    -0.03712   0.67462   1.00
H2       0.31586    -0.08300   0.83083   1.00
H2       0.31342    -0.12895   0.80539   1.00
H2       0.32490    -0.19055   0.85848   1.00
H2       0.15508    0.05750    0.65190   1.00
H2       0.13115    0.01234    0.63769   1.00
C2       0.25149    0.10395    0.74790   1.00
C3       0.21679    0.08403    0.75774   1.00
O2       0.18143    0.10326    0.75719   1.00
C3       0.28556    0.08174    0.74077   1.00
H1       0.31282    0.09615    0.73417   1.00
C3a      0.21663    0.04287    0.75922   1.00
H1       0.18933    0.02798    0.76460   1.00
C3b      0.28500    0.04078    0.74105   1.00
C4       0.25035    0.02100    0.75023   1.00
O_3      0.23786    -0.02167   0.68004   1.00
C5       0.16981    0.11280    0.79552   1.00
H2       0.16673    0.08609    0.81394   1.00
C5       0.13026    0.13334    0.79248   1.00
H2       0.19132    0.13274    0.80959   1.00
H2       0.10721    0.11077    0.78865   1.00
H2       0.13055    0.15101    0.76519   1.00
C5       0.12119    0.15931    0.82809   1.00
H2       0.12407    0.14189    0.85529   1.00
H2       0.09096    0.17109    0.82636   1.00
H2       0.14119    0.18506    0.82946   1.00
C5       0.19517    0.00980    0.63579   1.00
H2       0.19852    -0.01218   0.61209   1.00
H2       0.22015    0.03045    0.63316   1.00
C5       0.15631    0.03197    0.63170   1.00
H2       0.15320    0.04334    0.60149   1.00
C5       0.36739    0.29850    0.36773   1.00
H2       0.36851    0.26995    0.35245   1.00
H2       0.39184    0.29813    0.38901   1.00
C5       0.37305    0.33185    0.33781   1.00
H2       0.40455    0.33610    0.33110   1.00
H2       0.36089    0.35956    0.34960   1.00
O_3      0.23455    0.31905    0.52000   1.00
C4       0.24996    0.24956    0.47900   1.00
C3c      0.28418    0.25656    0.45757   1.00
H1       0.31129    0.26199    0.47275   1.00
C3d      0.21506    0.24199    0.45865   1.00
C3       0.28395    0.25723    0.41646   1.00
O2       0.31929    0.25951    0.39752   1.00
C3       0.21457    0.24337    0.41773   1.00
H1       0.18684    0.23876    0.40343   1.00
C2       0.24882    0.25083    0.39561   1.00
C5       0.19440    0.32820    0.52121   1.00
H2       0.18367    0.33247    0.55162   1.00
H2       0.17660    0.30472    0.50734   1.00
C5       0.18856    0.36600    0.49878   1.00
H2       0.20029    0.36208    0.46871   1.00
H2       0.20617    0.38930    0.51309   1.00
C5       0.14530    0.37740    0.49746   1.00
H2       0.13334    0.38109    0.52740   1.00
H2       0.12790    0.35478    0.48197   1.00
H2       0.14171    0.40553    0.48170   1.00
C5       0.17489    0.19841    0.48895   1.00
C5       0.32826    0.29894    0.38930   1.00
H2       0.19830    0.18850    0.50912   1.00
H2       0.17462    0.17891    0.46288   1.00
H2       0.33083    0.31586    0.41700   1.00
H2       0.30539    0.31342    0.37105   1.00
H2       0.35848    0.32490    0.30945   1.00
H2       0.15190    0.15508    0.55750   1.00
H2       0.13769    0.13115    0.51234   1.00
C2       0.24790    0.25149    0.60395   1.00
C3       0.25774    0.21679    0.58403   1.00
O2       0.25719    0.18143    0.60326   1.00
C3       0.24077    0.28556    0.58174   1.00
H1       0.23417    0.31282    0.59615   1.00
C3a      0.25922    0.21663    0.54287   1.00
H1       0.26460    0.18933    0.52798   1.00
C3b      0.24105    0.28500    0.54078   1.00
C4       0.25023    0.25035    0.52100   1.00
O_3      0.18004    0.23786    0.47833   1.00
C5       0.29552    0.16981    0.61280   1.00
H2       0.31394    0.16673    0.58609   1.00
C5       0.29248    0.13026    0.63334   1.00
H2       0.30959    0.19132    0.63274   1.00
H2       0.28865    0.10721    0.61077   1.00
H2       0.26519    0.13055    0.65101   1.00
C5       0.32809    0.12119    0.65931   1.00
H2       0.35529    0.12407    0.64189   1.00
H2       0.32636    0.09096    0.67109   1.00
H2       0.32946    0.14119    0.68506   1.00
C5       0.13579    0.19517    0.50980   1.00
H2       0.11209    0.19852    0.48782   1.00
H2       0.13316    0.22015    0.53045   1.00
C5       0.13170    0.15631    0.53197   1.00
H2       0.10149    0.15320    0.54334   1.00
C5       0.36739    0.70150    0.63227   1.00
H2       0.36851    0.73005    0.64755   1.00
H2       0.39184    0.70187    0.61099   1.00
C5       0.37305    0.66815    0.66219   1.00
H2       0.40455    0.66390    0.66890   1.00
H2       0.36089    0.64044    0.65040   1.00
O_3      0.23455    0.68095    0.48000   1.00
C4       0.24996    0.75044    0.52100   1.00
C3c      0.28418    0.74344    0.54243   1.00
H1       0.31129    0.73801    0.52725   1.00
C3d      0.21506    0.75801    0.54135   1.00
C3       0.28395    0.74277    0.58354   1.00
O2       0.31929    0.74049    0.60248   1.00
C3       0.21457    0.75663    0.58227   1.00
H1       0.18684    0.76124    0.59657   1.00
C2       0.24882    0.74917    0.60439   1.00
C5       0.19440    0.67180    0.47879   1.00
H2       0.18367    0.66753    0.44838   1.00
H2       0.17660    0.69528    0.49266   1.00
C5       0.18856    0.63400    0.50122   1.00
H2       0.20029    0.63792    0.53129   1.00
H2       0.20617    0.61070    0.48691   1.00
C5       0.14530    0.62260    0.50254   1.00
H2       0.13334    0.61891    0.47260   1.00
H2       0.12790    0.64522    0.51803   1.00
H2       0.14171    0.59447    0.51830   1.00
C5       0.17489    0.80159    0.51105   1.00
C5       0.32826    0.70106    0.61070   1.00
H2       0.19830    0.81150    0.49088   1.00
H2       0.17462    0.82109    0.53712   1.00
H2       0.33083    0.68414    0.58300   1.00
H2       0.30539    0.68658    0.62895   1.00
H2       0.35848    0.67510    0.69055   1.00
H2       0.15190    0.84492    0.44250   1.00
H2       0.13769    0.86885    0.48766   1.00
C2       0.24790    0.74851    0.39605   1.00
C3       0.25774    0.78321    0.41597   1.00
O2       0.25719    0.81857    0.39674   1.00
C3       0.24077    0.71444    0.41826   1.00
H1       0.23417    0.68718    0.40385   1.00
C3a      0.25922    0.78337    0.45713   1.00
H1       0.26460    0.81067    0.47202   1.00
C3b      0.24105    0.71500    0.45922   1.00
C4       0.25023    0.74965    0.47900   1.00
O_3      0.18004    0.76214    0.52167   1.00
C5       0.29552    0.83019    0.38720   1.00
H2       0.31394    0.83327    0.41391   1.00
C5       0.29248    0.86974    0.36666   1.00
H2       0.30959    0.80868    0.36726   1.00
H2       0.28865    0.89279    0.38923   1.00
H2       0.26519    0.86945    0.34899   1.00
C5       0.32809    0.87881    0.34069   1.00
H2       0.35529    0.87593    0.35811   1.00
H2       0.32636    0.90904    0.32891   1.00
H2       0.32946    0.85881    0.31494   1.00
C5       0.13579    0.80483    0.49020   1.00
H2       0.11209    0.80148    0.51218   1.00
H2       0.13316    0.77985    0.46955   1.00
C5       0.13170    0.84369    0.46803   1.00
H2       0.10149    0.84680    0.45666   1.00
C5       0.20150    1.13227    0.36739   1.00
H2       0.23005    1.14755    0.36851   1.00
H2       0.20187    1.11099    0.39184   1.00
C5       0.16815    1.16219    0.37305   1.00
H2       0.16390    1.16890    0.40455   1.00
H2       0.14044    1.15040    0.36089   1.00
O_3      0.18095    0.98000    0.23455   1.00
C4       0.25044    1.02100    0.24996   1.00
C3c      0.24344    1.04243    0.28418   1.00
H1       0.23801    1.02725    0.31129   1.00
C3d      0.25801    1.04135    0.21506   1.00
C3       0.24277    1.08354    0.28395   1.00
O2       0.24049    1.10248    0.31929   1.00
C3       0.25663    1.08227    0.21457   1.00
H1       0.26124    1.09657    0.18684   1.00
C2       0.24917    1.10439    0.24882   1.00
C5       0.17180    0.97879    0.19440   1.00
H2       0.16753    0.94838    0.18367   1.00
H2       0.19528    0.99266    0.17660   1.00
C5       0.13400    1.00122    0.18856   1.00
H2       0.13792    1.03129    0.20029   1.00
H2       0.11070    0.98691    0.20617   1.00
C5       0.12260    1.00254    0.14530   1.00
H2       0.11891    0.97260    0.13334   1.00
H2       0.14522    1.01803    0.12790   1.00
H2       0.09447    1.01830    0.14171   1.00
C5       0.30159    1.01105    0.17489   1.00
C5       0.20106    1.11070    0.32826   1.00
H2       0.31150    0.99088    0.19830   1.00
H2       0.32109    1.03712    0.17462   1.00
H2       0.18414    1.08300    0.33083   1.00
H2       0.18658    1.12895    0.30539   1.00
H2       0.17510    1.19055    0.35848   1.00
H2       0.34492    0.94250    0.15190   1.00
H2       0.36885    0.98766    0.13769   1.00
C2       0.24851    0.89605    0.24790   1.00
C3       0.28321    0.91597    0.25774   1.00
O2       0.31857    0.89674    0.25719   1.00
C3       0.21444    0.91826    0.24077   1.00
H1       0.18718    0.90385    0.23417   1.00
C3a      0.28337    0.95713    0.25922   1.00
H1       0.31067    0.97202    0.26460   1.00
C3b      0.21500    0.95922    0.24105   1.00
C4       0.24965    0.97900    0.25023   1.00
O_3      0.26214    1.02167    0.18004   1.00
C5       0.33019    0.88720    0.29552   1.00
H2       0.33327    0.91391    0.31394   1.00
C5       0.36974    0.86666    0.29248   1.00
H2       0.30868    0.86726    0.30959   1.00
H2       0.39279    0.88923    0.28865   1.00
H2       0.36945    0.84899    0.26519   1.00
C5       0.37881    0.84069    0.32809   1.00
H2       0.37593    0.85811    0.35529   1.00
H2       0.40904    0.82891    0.32636   1.00
H2       0.35881    0.81494    0.32946   1.00
C5       0.30483    0.99020    0.13579   1.00
H2       0.30148    1.01218    0.11209   1.00
H2       0.27985    0.96955    0.13316   1.00
C5       0.34369    0.96803    0.13170   1.00
H2       0.34680    0.95666    0.10149   1.00
C5       -0.13227   0.86739    0.29850   1.00
H2       -0.14755   0.86851    0.26995   1.00
H2       -0.11099   0.89184    0.29813   1.00
C5       -0.16219   0.87305    0.33185   1.00
H2       -0.16890   0.90455    0.33610   1.00
H2       -0.15040   0.86089    0.35956   1.00
O_3      0.02000    0.73455    0.31905   1.00
C4       -0.02100   0.74996    0.24956   1.00
C3c      -0.04243   0.78418    0.25656   1.00
H1       -0.02725   0.81129    0.26199   1.00
C3d      -0.04135   0.71506    0.24199   1.00
C3       -0.08354   0.78395    0.25723   1.00
O2       -0.10248   0.81929    0.25951   1.00
C3       -0.08227   0.71457    0.24337   1.00
H1       -0.09657   0.68684    0.23876   1.00
C2       -0.10439   0.74882    0.25083   1.00
C5       0.02121    0.69440    0.32820   1.00
H2       0.05162    0.68367    0.33247   1.00
H2       0.00734    0.67660    0.30472   1.00
C5       -0.00122   0.68856    0.36600   1.00
H2       -0.03129   0.70029    0.36208   1.00
H2       0.01309    0.70617    0.38930   1.00
C5       -0.00254   0.64530    0.37740   1.00
H2       0.02740    0.63334    0.38109   1.00
H2       -0.01803   0.62790    0.35478   1.00
H2       -0.01830   0.64171    0.40553   1.00
C5       -0.01105   0.67489    0.19841   1.00
C5       -0.11070   0.82826    0.29894   1.00
H2       0.00912    0.69830    0.18850   1.00
H2       -0.03712   0.67462    0.17891   1.00
H2       -0.08300   0.83083    0.31586   1.00
H2       -0.12895   0.80539    0.31342   1.00
H2       -0.19055   0.85848    0.32490   1.00
H2       0.05750    0.65190    0.15508   1.00
H2       0.01234    0.63769    0.13115   1.00
C2       0.10395    0.74790    0.25149   1.00
C3       0.08403    0.75774    0.21679   1.00
O2       0.10326    0.75719    0.18143   1.00
C3       0.08174    0.74077    0.28556   1.00
H1       0.09615    0.73417    0.31282   1.00
C3a      0.04287    0.75922    0.21663   1.00
H1       0.02798    0.76460    0.18933   1.00
C3b      0.04078    0.74105    0.28500   1.00
C4       0.02100    0.75023    0.25035   1.00
O_3      -0.02167   0.68004    0.23786   1.00
C5       0.11280    0.79552    0.16981   1.00
H2       0.08609    0.81394    0.16673   1.00
C5       0.13334    0.79248    0.13026   1.00
H2       0.13274    0.80959    0.19132   1.00
H2       0.11077    0.78865    0.10721   1.00
H2       0.15101    0.76519    0.13055   1.00
C5       0.15931    0.82809    0.12119   1.00
H2       0.14189    0.85529    0.12407   1.00
H2       0.17109    0.82636    0.09096   1.00
H2       0.18506    0.82946    0.14119   1.00
C5       0.00980    0.63579    0.19517   1.00
H2       -0.01218   0.61209    0.19852   1.00
H2       0.03045    0.63316    0.22015   1.00
C5       0.03197    0.63170    0.15631   1.00
H2       0.04334    0.60149    0.15320   1.00
C5       0.63227    0.86739    0.20150   1.00
H2       0.64755    0.86851    0.23005   1.00
H2       0.61099    0.89184    0.20187   1.00
C5       0.66219    0.87305    0.16815   1.00
H2       0.66890    0.90455    0.16390   1.00
H2       0.65040    0.86089    0.14044   1.00
O_3      0.48000    0.73455    0.18095   1.00
C4       0.52100    0.74996    0.25044   1.00
C3c      0.54243    0.78418    0.24344   1.00
H1       0.52725    0.81129    0.23801   1.00
C3d      0.54135    0.71506    0.25801   1.00
C3       0.58354    0.78395    0.24277   1.00
O2       0.60248    0.81929    0.24049   1.00
C3       0.58227    0.71457    0.25663   1.00
H1       0.59657    0.68684    0.26124   1.00
C2       0.60439    0.74882    0.24917   1.00
C5       0.47879    0.69440    0.17180   1.00
H2       0.44838    0.68367    0.16753   1.00
H2       0.49266    0.67660    0.19528   1.00
C5       0.50122    0.68856    0.13400   1.00
H2       0.53129    0.70029    0.13792   1.00
H2       0.48691    0.70617    0.11070   1.00
C5       0.50254    0.64530    0.12260   1.00
H2       0.47260    0.63334    0.11891   1.00
H2       0.51803    0.62790    0.14522   1.00
H2       0.51830    0.64171    0.09447   1.00
C5       0.51105    0.67489    0.30159   1.00
C5       0.61070    0.82826    0.20106   1.00
H2       0.49088    0.69830    0.31150   1.00
H2       0.53712    0.67462    0.32109   1.00
H2       0.58300    0.83083    0.18414   1.00
H2       0.62895    0.80539    0.18658   1.00
H2       0.69055    0.85848    0.17510   1.00
H2       0.44250    0.65190    0.34492   1.00
H2       0.48766    0.63769    0.36885   1.00
C2       0.39605    0.74790    0.24851   1.00
C3       0.41597    0.75774    0.28321   1.00
O2       0.39674    0.75719    0.31857   1.00
C3       0.41826    0.74077    0.21444   1.00
H1       0.40385    0.73417    0.18718   1.00
C3a      0.45713    0.75922    0.28337   1.00
H1       0.47202    0.76460    0.31067   1.00
C3b      0.45922    0.74105    0.21500   1.00
C4       0.47900    0.75023    0.24965   1.00
O_3      0.52167    0.68004    0.26214   1.00
C5       0.38720    0.79552    0.33019   1.00
H2       0.41391    0.81394    0.33327   1.00
C5       0.36666    0.79248    0.36974   1.00
H2       0.36726    0.80959    0.30868   1.00
H2       0.38923    0.78865    0.39279   1.00
H2       0.34899    0.76519    0.36945   1.00
C5       0.34069    0.82809    0.37881   1.00
H2       0.35811    0.85529    0.37593   1.00
H2       0.32891    0.82636    0.40904   1.00
H2       0.31494    0.82946    0.35881   1.00
C5       0.49020    0.63579    0.30483   1.00
H2       0.51218    0.61209    0.30148   1.00
H2       0.46955    0.63316    0.27985   1.00
C5       0.46803    0.63170    0.34369   1.00
H2       0.45666    0.60149    0.34680   1.00
C5       0.29850    0.36773    0.36739   1.00
H2       0.26995    0.35245    0.36851   1.00
H2       0.29813    0.38901    0.39184   1.00
C5       0.33185    0.33781    0.37305   1.00
H2       0.33610    0.33110    0.40455   1.00
H2       0.35956    0.34960    0.36089   1.00
O_3      0.31905    0.52000    0.23455   1.00
C4       0.24956    0.47900    0.24996   1.00
C3c      0.25656    0.45757    0.28418   1.00
H1       0.26199    0.47275    0.31129   1.00
C3d      0.24199    0.45865    0.21506   1.00
C3       0.25723    0.41646    0.28395   1.00
O2       0.25951    0.39752    0.31929   1.00
C3       0.24337    0.41773    0.21457   1.00
H1       0.23876    0.40343    0.18684   1.00
C2       0.25083    0.39561    0.24882   1.00
C5       0.32820    0.52121    0.19440   1.00
H2       0.33247    0.55162    0.18367   1.00
H2       0.30472    0.50734    0.17660   1.00
C5       0.36600    0.49878    0.18856   1.00
H2       0.36208    0.46871    0.20029   1.00
H2       0.38930    0.51309    0.20617   1.00
C5       0.37740    0.49746    0.14530   1.00
H2       0.38109    0.52740    0.13334   1.00
H2       0.35478    0.48197    0.12790   1.00
H2       0.40553    0.48170    0.14171   1.00
C5       0.19841    0.48895    0.17489   1.00
C5       0.29894    0.38930    0.32826   1.00
H2       0.18850    0.50912    0.19830   1.00
H2       0.17891    0.46288    0.17462   1.00
H2       0.31586    0.41700    0.33083   1.00
H2       0.31342    0.37105    0.30539   1.00
H2       0.32490    0.30945    0.35848   1.00
H2       0.15508    0.55750    0.15190   1.00
H2       0.13115    0.51234    0.13769   1.00
C2       0.25149    0.60395    0.24790   1.00
C3       0.21679    0.58403    0.25774   1.00
O2       0.18143    0.60326    0.25719   1.00
C3       0.28556    0.58174    0.24077   1.00
H1       0.31282    0.59615    0.23417   1.00
C3a      0.21663    0.54287    0.25922   1.00
H1       0.18933    0.52798    0.26460   1.00
C3b      0.28500    0.54078    0.24105   1.00
C4       0.25035    0.52100    0.25023   1.00
O_3      0.23786    0.47833    0.18004   1.00
C5       0.16981    0.61280    0.29552   1.00
H2       0.16673    0.58609    0.31394   1.00
C5       0.13026    0.63334    0.29248   1.00
H2       0.19132    0.63274    0.30959   1.00
H2       0.10721    0.61077    0.28865   1.00
H2       0.13055    0.65101    0.26519   1.00
C5       0.12119    0.65931    0.32809   1.00
H2       0.12407    0.64189    0.35529   1.00
H2       0.09096    0.67109    0.32636   1.00
H2       0.14119    0.68506    0.32946   1.00
C5       0.19517    0.50980    0.13579   1.00
H2       0.19852    0.48782    0.11209   1.00
H2       0.22015    0.53045    0.13316   1.00
C5       0.15631    0.53197    0.13170   1.00
H2       0.15320    0.54334    0.10149   1.00
C5       0.36739    0.79850    -0.13227   1.00
H2       0.36851    0.76995    -0.14755   1.00
H2       0.39184    0.79813    -0.11099   1.00
C5       0.37305    0.83185    -0.16219   1.00
H2       0.40455    0.83610    -0.16890   1.00
H2       0.36089    0.85956    -0.15040   1.00
O_3      0.23455    0.81905    0.02000   1.00
C4       0.24996    0.74956    -0.02100   1.00
C3c      0.28418    0.75656    -0.04243   1.00
H1       0.31129    0.76199    -0.02725   1.00
C3d      0.21506    0.74199    -0.04135   1.00
C3       0.28395    0.75723    -0.08354   1.00
O2       0.31929    0.75951    -0.10248   1.00
C3       0.21457    0.74337    -0.08227   1.00
H1       0.18684    0.73876    -0.09657   1.00
C2       0.24882    0.75083    -0.10439   1.00
C5       0.19440    0.82820    0.02121   1.00
H2       0.18367    0.83247    0.05162   1.00
H2       0.17660    0.80472    0.00734   1.00
C5       0.18856    0.86600    -0.00122   1.00
H2       0.20029    0.86208    -0.03129   1.00
H2       0.20617    0.88930    0.01309   1.00
C5       0.14530    0.87740    -0.00254   1.00
H2       0.13334    0.88109    0.02740   1.00
H2       0.12790    0.85478    -0.01803   1.00
H2       0.14171    0.90553    -0.01830   1.00
C5       0.17489    0.69841    -0.01105   1.00
C5       0.32826    0.79894    -0.11070   1.00
H2       0.19830    0.68850    0.00912   1.00
H2       0.17462    0.67891    -0.03712   1.00
H2       0.33083    0.81586    -0.08300   1.00
H2       0.30539    0.81342    -0.12895   1.00
H2       0.35848    0.82490    -0.19055   1.00
H2       0.15190    0.65508    0.05750   1.00
H2       0.13769    0.63115    0.01234   1.00
C2       0.24790    0.75149    0.10395   1.00
C3       0.25774    0.71679    0.08403   1.00
O2       0.25719    0.68143    0.10326   1.00
C3       0.24077    0.78556    0.08174   1.00
H1       0.23417    0.81282    0.09615   1.00
C3a      0.25922    0.71663    0.04287   1.00
H1       0.26460    0.68933    0.02798   1.00
C3b      0.24105    0.78500    0.04078   1.00
C4       0.25023    0.75035    0.02100   1.00
O_3      0.18004    0.73786    -0.02167   1.00
C5       0.29552    0.66981    0.11280   1.00
H2       0.31394    0.66673    0.08609   1.00
C5       0.29248    0.63026    0.13334   1.00
H2       0.30959    0.69132    0.13274   1.00
H2       0.28865    0.60721    0.11077   1.00
H2       0.26519    0.63055    0.15101   1.00
C5       0.32809    0.62119    0.15931   1.00
H2       0.35529    0.62407    0.14189   1.00
H2       0.32636    0.59096    0.17109   1.00
H2       0.32946    0.64119    0.18506   1.00
C5       0.13579    0.69517    0.00980   1.00
H2       0.11209    0.69852    -0.01218   1.00
H2       0.13316    0.72015    0.03045   1.00
C5       0.13170    0.65631    0.03197   1.00
H2       0.10149    0.65320    0.04334   1.00
C5       0.86739    0.20150    0.63227   1.00
H2       0.86851    0.23005    0.64755   1.00
H2       0.89184    0.20187    0.61099   1.00
C5       0.87305    0.16815    0.66219   1.00
H2       0.90455    0.16390    0.66890   1.00
H2       0.86089    0.14044    0.65040   1.00
O_3      0.73455    0.18095    0.48000   1.00
C4       0.74996    0.25044    0.52100   1.00
C3c      0.78418    0.24344    0.54243   1.00
H1       0.81129    0.23801    0.52725   1.00
C3d      0.71506    0.25801    0.54135   1.00
C3       0.78395    0.24277    0.58354   1.00
O2       0.81929    0.24049    0.60248   1.00
C3       0.71457    0.25663    0.58227   1.00
H1       0.68684    0.26124    0.59657   1.00
C2       0.74882    0.24917    0.60439   1.00
C5       0.69440    0.17180    0.47879   1.00
H2       0.68367    0.16753    0.44838   1.00
H2       0.67660    0.19528    0.49266   1.00
C5       0.68856    0.13400    0.50122   1.00
H2       0.70029    0.13792    0.53129   1.00
H2       0.70617    0.11070    0.48691   1.00
C5       0.64530    0.12260    0.50254   1.00
H2       0.63334    0.11891    0.47260   1.00
H2       0.62790    0.14522    0.51803   1.00
H2       0.64171    0.09447    0.51830   1.00
C5       0.67489    0.30159    0.51105   1.00
C5       0.82826    0.20106    0.61070   1.00
H2       0.69830    0.31150    0.49088   1.00
H2       0.67462    0.32109    0.53712   1.00
H2       0.83083    0.18414    0.58300   1.00
H2       0.80539    0.18658    0.62895   1.00
H2       0.85848    0.17510    0.69055   1.00
H2       0.65190    0.34492    0.44250   1.00
H2       0.63769    0.36885    0.48766   1.00
C2       0.74790    0.24851    0.39605   1.00
C3       0.75774    0.28321    0.41597   1.00
O2       0.75719    0.31857    0.39674   1.00
C3       0.74077    0.21444    0.41826   1.00
H1       0.73417    0.18718    0.40385   1.00
C3a      0.75922    0.28337    0.45713   1.00
H1       0.76460    0.31067    0.47202   1.00
C3b      0.74105    0.21500    0.45922   1.00
C4       0.75023    0.24965    0.47900   1.00
O_3      0.68004    0.26214    0.52167   1.00
C5       0.79552    0.33019    0.38720   1.00
H2       0.81394    0.33327    0.41391   1.00
C5       0.79248    0.36974    0.36666   1.00
H2       0.80959    0.30868    0.36726   1.00
H2       0.78865    0.39279    0.38923   1.00
H2       0.76519    0.36945    0.34899   1.00
C5       0.82809    0.37881    0.34069   1.00
H2       0.85529    0.37593    0.35811   1.00
H2       0.82636    0.40904    0.32891   1.00
H2       0.82946    0.35881    0.31494   1.00
C5       0.63579    0.30483    0.49020   1.00
H2       0.61209    0.30148    0.51218   1.00
H2       0.63316    0.27985    0.46955   1.00
C5       0.63170    0.34369    0.46803   1.00
H2       0.60149    0.34680    0.45666   1.00
C5       0.70150    0.63227    0.36739   1.00
H2       0.73005    0.64755    0.36851   1.00
H2       0.70187    0.61099    0.39184   1.00
C5       0.66815    0.66219    0.37305   1.00
H2       0.66390    0.66890    0.40455   1.00
H2       0.64044    0.65040    0.36089   1.00
O_3      0.68095    0.48000    0.23455   1.00
C4       0.75044    0.52100    0.24996   1.00
C3c      0.74344    0.54243    0.28418   1.00
H1       0.73801    0.52725    0.31129   1.00
C3d      0.75801    0.54135    0.21506   1.00
C3       0.74277    0.58354    0.28395   1.00
O2       0.74049    0.60248    0.31929   1.00
C3       0.75663    0.58227    0.21457   1.00
H1       0.76124    0.59657    0.18684   1.00
C2       0.74917    0.60439    0.24882   1.00
C5       0.67180    0.47879    0.19440   1.00
H2       0.66753    0.44838    0.18367   1.00
H2       0.69528    0.49266    0.17660   1.00
C5       0.63400    0.50122    0.18856   1.00
H2       0.63792    0.53129    0.20029   1.00
H2       0.61070    0.48691    0.20617   1.00
C5       0.62260    0.50254    0.14530   1.00
H2       0.61891    0.47260    0.13334   1.00
H2       0.64522    0.51803    0.12790   1.00
H2       0.59447    0.51830    0.14171   1.00
C5       0.80159    0.51105    0.17489   1.00
C5       0.70106    0.61070    0.32826   1.00
H2       0.81150    0.49088    0.19830   1.00
H2       0.82109    0.53712    0.17462   1.00
H2       0.68414    0.58300    0.33083   1.00
H2       0.68658    0.62895    0.30539   1.00
H2       0.67510    0.69055    0.35848   1.00
H2       0.84492    0.44250    0.15190   1.00
H2       0.86885    0.48766    0.13769   1.00
C2       0.74851    0.39605    0.24790   1.00
C3       0.78321    0.41597    0.25774   1.00
O2       0.81857    0.39674    0.25719   1.00
C3       0.71444    0.41826    0.24077   1.00
H1       0.68718    0.40385    0.23417   1.00
C3a      0.78337    0.45713    0.25922   1.00
H1       0.81067    0.47202    0.26460   1.00
C3b      0.71500    0.45922    0.24105   1.00
C4       0.74965    0.47900    0.25023   1.00
O_3      0.76214    0.52167    0.18004   1.00
C5       0.83019    0.38720    0.29552   1.00
H2       0.83327    0.41391    0.31394   1.00
C5       0.86974    0.36666    0.29248   1.00
H2       0.80868    0.36726    0.30959   1.00
H2       0.89279    0.38923    0.28865   1.00
H2       0.86945    0.34899    0.26519   1.00
C5       0.87881    0.34069    0.32809   1.00
H2       0.87593    0.35811    0.35529   1.00
H2       0.90904    0.32891    0.32636   1.00
H2       0.85881    0.31494    0.32946   1.00
C5       0.80483    0.49020    0.13579   1.00
H2       0.80148    0.51218    0.11209   1.00
H2       0.77985    0.46955    0.13316   1.00
C5       0.84369    0.46803    0.13170   1.00
H2       0.84680    0.45666    0.10149   1.00
C5       0.36773    0.36739    0.29850   1.00
H2       0.35245    0.36851    0.26995   1.00
H2       0.38901    0.39184    0.29813   1.00
C5       0.33781    0.37305    0.33185   1.00
H2       0.33110    0.40455    0.33610   1.00
H2       0.34960    0.36089    0.35956   1.00
O_3      0.52000    0.23455    0.31905   1.00
C4       0.47900    0.24996    0.24956   1.00
C3c      0.45757    0.28418    0.25656   1.00
H1       0.47275    0.31129    0.26199   1.00
C3d      0.45865    0.21506    0.24199   1.00
C3       0.41646    0.28395    0.25723   1.00
O2       0.39752    0.31929    0.25951   1.00
C3       0.41773    0.21457    0.24337   1.00
H1       0.40343    0.18684    0.23876   1.00
C2       0.39561    0.24882    0.25083   1.00
C5       0.52121    0.19440    0.32820   1.00
H2       0.55162    0.18367    0.33247   1.00
H2       0.50734    0.17660    0.30472   1.00
C5       0.49878    0.18856    0.36600   1.00
H2       0.46871    0.20029    0.36208   1.00
H2       0.51309    0.20617    0.38930   1.00
C5       0.49746    0.14530    0.37740   1.00
H2       0.52740    0.13334    0.38109   1.00
H2       0.48197    0.12790    0.35478   1.00
H2       0.48170    0.14171    0.40553   1.00
C5       0.48895    0.17489    0.19841   1.00
C5       0.38930    0.32826    0.29894   1.00
H2       0.50912    0.19830    0.18850   1.00
H2       0.46288    0.17462    0.17891   1.00
H2       0.41700    0.33083    0.31586   1.00
H2       0.37105    0.30539    0.31342   1.00
H2       0.30945    0.35848    0.32490   1.00
H2       0.55750    0.15190    0.15508   1.00
H2       0.51234    0.13769    0.13115   1.00
C2       0.60395    0.24790    0.25149   1.00
C3       0.58403    0.25774    0.21679   1.00
O2       0.60326    0.25719    0.18143   1.00
C3       0.58174    0.24077    0.28556   1.00
H1       0.59615    0.23417    0.31282   1.00
C3a      0.54287    0.25922    0.21663   1.00
H1       0.52798    0.26460    0.18933   1.00
C3b      0.54078    0.24105    0.28500   1.00
C4       0.52100    0.25023    0.25035   1.00
O_3      0.47833    0.18004    0.23786   1.00
C5       0.61280    0.29552    0.16981   1.00
H2       0.58609    0.31394    0.16673   1.00
C5       0.63334    0.29248    0.13026   1.00
H2       0.63274    0.30959    0.19132   1.00
H2       0.61077    0.28865    0.10721   1.00
H2       0.65101    0.26519    0.13055   1.00
C5       0.65931    0.32809    0.12119   1.00
H2       0.64189    0.35529    0.12407   1.00
H2       0.67109    0.32636    0.09096   1.00
H2       0.68506    0.32946    0.14119   1.00
C5       0.50980    0.13579    0.19517   1.00
H2       0.48782    0.11209    0.19852   1.00
H2       0.53045    0.13316    0.22015   1.00
C5       0.53197    0.13170    0.15631   1.00
H2       0.54334    0.10149    0.15320   1.00
C5       1.13227    0.36739    0.20150   1.00
H2       1.14755    0.36851    0.23005   1.00
H2       1.11099    0.39184    0.20187   1.00
C5       1.16219    0.37305    0.16815   1.00
H2       1.16890    0.40455    0.16390   1.00
H2       1.15040    0.36089    0.14044   1.00
O_3      0.98000    0.23455    0.18095   1.00
C4       1.02100    0.24996    0.25044   1.00
C3c      1.04243    0.28418    0.24344   1.00
H1       1.02725    0.31129    0.23801   1.00
C3d      1.04135    0.21506    0.25801   1.00
C3       1.08354    0.28395    0.24277   1.00
O2       1.10248    0.31929    0.24049   1.00
C3       1.08227    0.21457    0.25663   1.00
H1       1.09657    0.18684    0.26124   1.00
C2       1.10439    0.24882    0.24917   1.00
C5       0.97879    0.19440    0.17180   1.00
H2       0.94838    0.18367    0.16753   1.00
H2       0.99266    0.17660    0.19528   1.00
C5       1.00122    0.18856    0.13400   1.00
H2       1.03129    0.20029    0.13792   1.00
H2       0.98691    0.20617    0.11070   1.00
C5       1.00254    0.14530    0.12260   1.00
H2       0.97260    0.13334    0.11891   1.00
H2       1.01803    0.12790    0.14522   1.00
H2       1.01830    0.14171    0.09447   1.00
C5       1.01105    0.17489    0.30159   1.00
C5       1.11070    0.32826    0.20106   1.00
H2       0.99088    0.19830    0.31150   1.00
H2       1.03712    0.17462    0.32109   1.00
H2       1.08300    0.33083    0.18414   1.00
H2       1.12895    0.30539    0.18658   1.00
H2       1.19055    0.35848    0.17510   1.00
H2       0.94250    0.15190    0.34492   1.00
H2       0.98766    0.13769    0.36885   1.00
C2       0.89605    0.24790    0.24851   1.00
C3       0.91597    0.25774    0.28321   1.00
O2       0.89674    0.25719    0.31857   1.00
C3       0.91826    0.24077    0.21444   1.00
H1       0.90385    0.23417    0.18718   1.00
C3a      0.95713    0.25922    0.28337   1.00
H1       0.97202    0.26460    0.31067   1.00
C3b      0.95922    0.24105    0.21500   1.00
C4       0.97900    0.25023    0.24965   1.00
O_3      1.02167    0.18004    0.26214   1.00
C5       0.88720    0.29552    0.33019   1.00
H2       0.91391    0.31394    0.33327   1.00
C5       0.86666    0.29248    0.36974   1.00
H2       0.86726    0.30959    0.30868   1.00
H2       0.88923    0.28865    0.39279   1.00
H2       0.84899    0.26519    0.36945   1.00
C5       0.84069    0.32809    0.37881   1.00
H2       0.85811    0.35529    0.37593   1.00
H2       0.82891    0.32636    0.40904   1.00
H2       0.81494    0.32946    0.35881   1.00
C5       0.99020    0.13579    0.30483   1.00
H2       1.01218    0.11209    0.30148   1.00
H2       0.96955    0.13316    0.27985   1.00
C5       0.96803    0.13170    0.34369   1.00
H2       0.95666    0.10149    0.34680   1.00
C5       0.79850    -0.13227   0.36739   1.00
H2       0.76995    -0.14755   0.36851   1.00
H2       0.79813    -0.11099   0.39184   1.00
C5       0.83185    -0.16219   0.37305   1.00
H2       0.83610    -0.16890   0.40455   1.00
H2       0.85956    -0.15040   0.36089   1.00
O_3      0.81905    0.02000    0.23455   1.00
C4       0.74956    -0.02100   0.24996   1.00
C3c      0.75656    -0.04243   0.28418   1.00
H1       0.76199    -0.02725   0.31129   1.00
C3d      0.74199    -0.04135   0.21506   1.00
C3       0.75723    -0.08354   0.28395   1.00
O2       0.75951    -0.10248   0.31929   1.00
C3       0.74337    -0.08227   0.21457   1.00
H1       0.73876    -0.09657   0.18684   1.00
C2       0.75083    -0.10439   0.24882   1.00
C5       0.82820    0.02121    0.19440   1.00
H2       0.83247    0.05162    0.18367   1.00
H2       0.80472    0.00734    0.17660   1.00
C5       0.86600    -0.00122   0.18856   1.00
H2       0.86208    -0.03129   0.20029   1.00
H2       0.88930    0.01309    0.20617   1.00
C5       0.87740    -0.00254   0.14530   1.00
H2       0.88109    0.02740    0.13334   1.00
H2       0.85478    -0.01803   0.12790   1.00
H2       0.90553    -0.01830   0.14171   1.00
C5       0.69841    -0.01105   0.17489   1.00
C5       0.79894    -0.11070   0.32826   1.00
H2       0.68850    0.00912    0.19830   1.00
H2       0.67891    -0.03712   0.17462   1.00
H2       0.81586    -0.08300   0.33083   1.00
H2       0.81342    -0.12895   0.30539   1.00
H2       0.82490    -0.19055   0.35848   1.00
H2       0.65508    0.05750    0.15190   1.00
H2       0.63115    0.01234    0.13769   1.00
C2       0.75149    0.10395    0.24790   1.00
C3       0.71679    0.08403    0.25774   1.00
O2       0.68143    0.10326    0.25719   1.00
C3       0.78556    0.08174    0.24077   1.00
H1       0.81282    0.09615    0.23417   1.00
C3a      0.71663    0.04287    0.25922   1.00
H1       0.68933    0.02798    0.26460   1.00
C3b      0.78500    0.04078    0.24105   1.00
C4       0.75035    0.02100    0.25023   1.00
O_3      0.73786    -0.02167   0.18004   1.00
C5       0.66981    0.11280    0.29552   1.00
H2       0.66673    0.08609    0.31394   1.00
C5       0.63026    0.13334    0.29248   1.00
H2       0.69132    0.13274    0.30959   1.00
H2       0.60721    0.11077    0.28865   1.00
H2       0.63055    0.15101    0.26519   1.00
C5       0.62119    0.15931    0.32809   1.00
H2       0.62407    0.14189    0.35529   1.00
H2       0.59096    0.17109    0.32636   1.00
H2       0.64119    0.18506    0.32946   1.00
C5       0.69517    0.00980    0.13579   1.00
H2       0.69852    -0.01218   0.11209   1.00
H2       0.72015    0.03045    0.13316   1.00
C5       0.65631    0.03197    0.13170   1.00
H2       0.65320    0.04334    0.10149   1.00
C5       0.86739    0.29850    -0.13227   1.00
H2       0.86851    0.26995    -0.14755   1.00
H2       0.89184    0.29813    -0.11099   1.00
C5       0.87305    0.33185    -0.16219   1.00
H2       0.90455    0.33610    -0.16890   1.00
H2       0.86089    0.35956    -0.15040   1.00
O_3      0.73455    0.31905    0.02000   1.00
C4       0.74996    0.24956    -0.02100   1.00
C3c      0.78418    0.25656    -0.04243   1.00
H1       0.81129    0.26199    -0.02725   1.00
C3d      0.71506    0.24199    -0.04135   1.00
C3       0.78395    0.25723    -0.08354   1.00
O2       0.81929    0.25951    -0.10248   1.00
C3       0.71457    0.24337    -0.08227   1.00
H1       0.68684    0.23876    -0.09657   1.00
C2       0.74882    0.25083    -0.10439   1.00
C5       0.69440    0.32820    0.02121   1.00
H2       0.68367    0.33247    0.05162   1.00
H2       0.67660    0.30472    0.00734   1.00
C5       0.68856    0.36600    -0.00122   1.00
H2       0.70029    0.36208    -0.03129   1.00
H2       0.70617    0.38930    0.01309   1.00
C5       0.64530    0.37740    -0.00254   1.00
H2       0.63334    0.38109    0.02740   1.00
H2       0.62790    0.35478    -0.01803   1.00
H2       0.64171    0.40553    -0.01830   1.00
C5       0.67489    0.19841    -0.01105   1.00
C5       0.82826    0.29894    -0.11070   1.00
H2       0.69830    0.18850    0.00912   1.00
H2       0.67462    0.17891    -0.03712   1.00
H2       0.83083    0.31586    -0.08300   1.00
H2       0.80539    0.31342    -0.12895   1.00
H2       0.85848    0.32490    -0.19055   1.00
H2       0.65190    0.15508    0.05750   1.00
H2       0.63769    0.13115    0.01234   1.00
C2       0.74790    0.25149    0.10395   1.00
C3       0.75774    0.21679    0.08403   1.00
O2       0.75719    0.18143    0.10326   1.00
C3       0.74077    0.28556    0.08174   1.00
H1       0.73417    0.31282    0.09615   1.00
C3a      0.75922    0.21663    0.04287   1.00
H1       0.76460    0.18933    0.02798   1.00
C3b      0.74105    0.28500    0.04078   1.00
C4       0.75023    0.25035    0.02100   1.00
O_3      0.68004    0.23786    -0.02167   1.00
C5       0.79552    0.16981    0.11280   1.00
H2       0.81394    0.16673    0.08609   1.00
C5       0.79248    0.13026    0.13334   1.00
H2       0.80959    0.19132    0.13274   1.00
H2       0.78865    0.10721    0.11077   1.00
H2       0.76519    0.13055    0.15101   1.00
C5       0.82809    0.12119    0.15931   1.00
H2       0.85529    0.12407    0.14189   1.00
H2       0.82636    0.09096    0.17109   1.00
H2       0.82946    0.14119    0.18506   1.00
C5       0.63579    0.19517    0.00980   1.00
H2       0.61209    0.19852    -0.01218   1.00
H2       0.63316    0.22015    0.03045   1.00
C5       0.63170    0.15631    0.03197   1.00
H2       0.60149    0.15320    0.04334   1.00
