data_IRMOF10_SG202_Ligand12_label_m.

_audit_creation_method             'generated by an auxiliary program of Tobunporous'

_symmetry_space_group_name_H-M     'P 1'
_symmetry_Int_Tables_number        1
_symmetry_cell_setting             triclinic

_cell_length_a                    34.2800
_cell_length_b                    34.2800
_cell_length_c                    34.2800
_cell_angle_alpha                 90.0000
_cell_angle_beta                  90.0000
_cell_angle_gamma                 90.0000

loop_
_atom_site_label
_atom_site_fract_x
_atom_site_fract_y
_atom_site_fract_z
_atom_site_occupancy
O1       0.75000    0.75000    0.75000   1.00
Zn1      0.71720    0.78280    0.78280   1.00
Zn1      0.78280    0.71720    0.78280   1.00
Zn1      0.78280    0.78280    0.71720   1.00
Zn1      0.71720    0.71720    0.71720   1.00
O2       0.72650    0.77350    0.83820   1.00
O2       0.72650    0.83820    0.77350   1.00
O2       0.66180    0.77350    0.77350   1.00
O2       0.77350    0.72650    0.83820   1.00
O2       0.83820    0.72650    0.77350   1.00
O2       0.77350    0.66180    0.77350   1.00
O2       0.77350    0.83820    0.72650   1.00
O2       0.83820    0.77350    0.72650   1.00
O2       0.77350    0.77350    0.66180   1.00
O2       0.66180    0.72650    0.72650   1.00
O2       0.72650    0.66180    0.72650   1.00
O2       0.72650    0.72650    0.66180   1.00
C1       0.75000    0.75000    0.85520   1.00
C1       0.75000    0.85520    0.75000   1.00
C1       0.64480    0.75000    0.75000   1.00
C1       0.85520    0.75000    0.75000   1.00
C1       0.75000    0.64480    0.75000   1.00
C1       0.75000    0.75000    0.64480   1.00
O1       0.25000    0.25000    0.75000   1.00
Zn1      0.21720    0.28280    0.78280   1.00
Zn1      0.28280    0.21720    0.78280   1.00
Zn1      0.28280    0.28280    0.71720   1.00
Zn1      0.21720    0.21720    0.71720   1.00
O2       0.22650    0.27350    0.83820   1.00
O2       0.22650    0.33820    0.77350   1.00
O2       0.16180    0.27350    0.77350   1.00
O2       0.27350    0.22650    0.83820   1.00
O2       0.33820    0.22650    0.77350   1.00
O2       0.27350    0.16180    0.77350   1.00
O2       0.27350    0.33820    0.72650   1.00
O2       0.33820    0.27350    0.72650   1.00
O2       0.27350    0.27350    0.66180   1.00
O2       0.16180    0.22650    0.72650   1.00
O2       0.22650    0.16180    0.72650   1.00
O2       0.22650    0.22650    0.66180   1.00
C1       0.25000    0.25000    0.85520   1.00
C1       0.25000    0.35520    0.75000   1.00
C1       0.14480    0.25000    0.75000   1.00
C1       0.35520    0.25000    0.75000   1.00
C1       0.25000    0.14480    0.75000   1.00
C1       0.25000    0.25000    0.64480   1.00
O1       0.25000    0.75000    0.25000   1.00
Zn1      0.21720    0.78280    0.28280   1.00
Zn1      0.28280    0.71720    0.28280   1.00
Zn1      0.28280    0.78280    0.21720   1.00
Zn1      0.21720    0.71720    0.21720   1.00
O2       0.22650    0.77350    0.33820   1.00
O2       0.22650    0.83820    0.27350   1.00
O2       0.16180    0.77350    0.27350   1.00
O2       0.27350    0.72650    0.33820   1.00
O2       0.33820    0.72650    0.27350   1.00
O2       0.27350    0.66180    0.27350   1.00
O2       0.27350    0.83820    0.22650   1.00
O2       0.33820    0.77350    0.22650   1.00
O2       0.27350    0.77350    0.16180   1.00
O2       0.16180    0.72650    0.22650   1.00
O2       0.22650    0.66180    0.22650   1.00
O2       0.22650    0.72650    0.16180   1.00
C1       0.25000    0.75000    0.35520   1.00
C1       0.25000    0.85520    0.25000   1.00
C1       0.14480    0.75000    0.25000   1.00
C1       0.35520    0.75000    0.25000   1.00
C1       0.25000    0.64480    0.25000   1.00
C1       0.25000    0.75000    0.14480   1.00
O1       0.75000    0.25000    0.25000   1.00
Zn1      0.71720    0.28280    0.28280   1.00
Zn1      0.78280    0.21720    0.28280   1.00
Zn1      0.78280    0.28280    0.21720   1.00
Zn1      0.71720    0.21720    0.21720   1.00
O2       0.72650    0.27350    0.33820   1.00
O2       0.72650    0.33820    0.27350   1.00
O2       0.66180    0.27350    0.27350   1.00
O2       0.77350    0.22650    0.33820   1.00
O2       0.83820    0.22650    0.27350   1.00
O2       0.77350    0.16180    0.27350   1.00
O2       0.77350    0.33820    0.22650   1.00
O2       0.83820    0.27350    0.22650   1.00
O2       0.77350    0.27350    0.16180   1.00
O2       0.66180    0.22650    0.22650   1.00
O2       0.72650    0.16180    0.22650   1.00
O2       0.72650    0.22650    0.16180   1.00
C1       0.75000    0.25000    0.35520   1.00
C1       0.75000    0.35520    0.25000   1.00
C1       0.64480    0.25000    0.25000   1.00
C1       0.85520    0.25000    0.25000   1.00
C1       0.75000    0.14480    0.25000   1.00
C1       0.75000    0.25000    0.14480   1.00
O1       0.25000    0.25000    0.25000   1.00
Zn1      0.28280    0.21720    0.21720   1.00
Zn1      0.21720    0.28280    0.21720   1.00
Zn1      0.21720    0.21720    0.28280   1.00
Zn1      0.28280    0.28280    0.28280   1.00
O2       0.27350    0.22650    0.16180   1.00
O2       0.27350    0.16180    0.22650   1.00
O2       0.33820    0.22650    0.22650   1.00
O2       0.22650    0.27350    0.16180   1.00
O2       0.16180    0.27350    0.22650   1.00
O2       0.22650    0.33820    0.22650   1.00
O2       0.22650    0.16180    0.27350   1.00
O2       0.16180    0.22650    0.27350   1.00
O2       0.22650    0.22650    0.33820   1.00
O2       0.33820    0.27350    0.27350   1.00
O2       0.27350    0.33820    0.27350   1.00
O2       0.27350    0.27350    0.33820   1.00
C1       0.25000    0.25000    0.14480   1.00
C1       0.25000    0.14480    0.25000   1.00
C1       0.35520    0.25000    0.25000   1.00
C1       0.14480    0.25000    0.25000   1.00
C1       0.25000    0.35520    0.25000   1.00
C1       0.25000    0.25000    0.35520   1.00
O1       0.75000    0.75000    0.25000   1.00
Zn1      0.78280    0.71720    0.21720   1.00
Zn1      0.71720    0.78280    0.21720   1.00
Zn1      0.71720    0.71720    0.28280   1.00
Zn1      0.78280    0.78280    0.28280   1.00
O2       0.77350    0.72650    0.16180   1.00
O2       0.77350    0.66180    0.22650   1.00
O2       0.83820    0.72650    0.22650   1.00
O2       0.72650    0.77350    0.16180   1.00
O2       0.66180    0.77350    0.22650   1.00
O2       0.72650    0.83820    0.22650   1.00
O2       0.72650    0.66180    0.27350   1.00
O2       0.66180    0.72650    0.27350   1.00
O2       0.72650    0.72650    0.33820   1.00
O2       0.83820    0.77350    0.27350   1.00
O2       0.77350    0.83820    0.27350   1.00
O2       0.77350    0.77350    0.33820   1.00
C1       0.75000    0.75000    0.14480   1.00
C1       0.75000    0.64480    0.25000   1.00
C1       0.85520    0.75000    0.25000   1.00
C1       0.64480    0.75000    0.25000   1.00
C1       0.75000    0.85520    0.25000   1.00
C1       0.75000    0.75000    0.35520   1.00
O1       0.75000    0.25000    0.75000   1.00
Zn1      0.78280    0.21720    0.71720   1.00
Zn1      0.71720    0.28280    0.71720   1.00
Zn1      0.71720    0.21720    0.78280   1.00
Zn1      0.78280    0.28280    0.78280   1.00
O2       0.77350    0.22650    0.66180   1.00
O2       0.77350    0.16180    0.72650   1.00
O2       0.83820    0.22650    0.72650   1.00
O2       0.72650    0.27350    0.66180   1.00
O2       0.66180    0.27350    0.72650   1.00
O2       0.72650    0.33820    0.72650   1.00
O2       0.72650    0.16180    0.77350   1.00
O2       0.66180    0.22650    0.77350   1.00
O2       0.72650    0.22650    0.83820   1.00
O2       0.83820    0.27350    0.77350   1.00
O2       0.77350    0.33820    0.77350   1.00
O2       0.77350    0.27350    0.83820   1.00
C1       0.75000    0.25000    0.64480   1.00
C1       0.75000    0.14480    0.75000   1.00
C1       0.85520    0.25000    0.75000   1.00
C1       0.64480    0.25000    0.75000   1.00
C1       0.75000    0.35520    0.75000   1.00
C1       0.75000    0.25000    0.85520   1.00
O1       0.25000    0.75000    0.75000   1.00
Zn1      0.28280    0.71720    0.71720   1.00
Zn1      0.21720    0.78280    0.71720   1.00
Zn1      0.21720    0.71720    0.78280   1.00
Zn1      0.28280    0.78280    0.78280   1.00
O2       0.27350    0.72650    0.66180   1.00
O2       0.27350    0.66180    0.72650   1.00
O2       0.33820    0.72650    0.72650   1.00
O2       0.22650    0.77350    0.66180   1.00
O2       0.16180    0.77350    0.72650   1.00
O2       0.22650    0.83820    0.72650   1.00
O2       0.22650    0.66180    0.77350   1.00
O2       0.16180    0.72650    0.77350   1.00
O2       0.22650    0.72650    0.83820   1.00
O2       0.33820    0.77350    0.77350   1.00
O2       0.27350    0.83820    0.77350   1.00
O2       0.27350    0.77350    0.83820   1.00
C1       0.25000    0.75000    0.64480   1.00
C1       0.25000    0.64480    0.75000   1.00
C1       0.35520    0.75000    0.75000   1.00
C1       0.14480    0.75000    0.75000   1.00
C1       0.25000    0.85520    0.75000   1.00
C1       0.25000    0.75000    0.85520   1.00
C4       0.75055    0.74945    1.02067   1.00
C4       0.74945    0.75055    0.97933   1.00
C3       0.72828    0.72199    1.04244   1.00
C3       0.72199    0.72828    0.95756   1.00
C4       0.77414    0.77648    1.04150   1.00
C4       0.77648    0.77414    0.95850   1.00
C2       0.74954    0.74957    1.10352   1.00
C2       0.74957    0.74954    0.89648   1.00
C3       0.72764    0.72245    1.08310   1.00
C3       0.72245    0.72764    0.91690   1.00
C3       0.77297    0.77595    1.08306   1.00
C3       0.77595    0.77297    0.91694   1.00
H1       0.71167    0.69904    1.02888   1.00
H1       0.69904    0.71167    0.97112   1.00
C5       0.79865    0.80287    1.02065   1.00
C5       0.80287    0.79865    0.97935   1.00
H1       0.71014    0.70138    1.09886   1.00
H1       0.70138    0.71014    0.90114   1.00
H1       0.79048    0.79538    1.10053   1.00
H1       0.79538    0.79048    0.89947   1.00
C6       0.81888    0.83622    1.04234   1.00
C6       0.83622    0.81888    0.95766   1.00
H2       0.82069    0.86256    1.02358   1.00
H2       0.80145    0.84671    1.06737   1.00
C6       0.85929    0.82371    1.05724   1.00
H2       0.86256    0.82069    0.97642   1.00
H2       0.84671    0.80145    0.93263   1.00
C6       0.82371    0.85929    0.94276   1.00
H2       0.87812    0.81378    1.03274   1.00
C6       0.87931    0.85745    1.07832   1.00
H2       0.85627    0.79856    1.07760   1.00
C6       0.85745    0.87931    0.92168   1.00
H2       0.79856    0.85627    0.92240   1.00
H2       0.81378    0.87812    0.96726   1.00
H2       0.88337    0.88257    1.05822   1.00
H2       0.86169    0.86702    1.10380   1.00
H2       0.90843    0.84803    1.08898   1.00
H2       0.88257    0.88337    0.94178   1.00
H2       0.86702    0.86169    0.89620   1.00
H2       0.84803    0.90843    0.91102   1.00
C4       0.74945    1.02067    0.75055   1.00
C4       0.75055    0.97933    0.74945   1.00
C3       0.72199    1.04244    0.72828   1.00
C3       0.72828    0.95756    0.72199   1.00
C4       0.77648    1.04150    0.77414   1.00
C4       0.77414    0.95850    0.77648   1.00
C2       0.74957    1.10352    0.74954   1.00
C2       0.74954    0.89648    0.74957   1.00
C3       0.72245    1.08310    0.72764   1.00
C3       0.72764    0.91690    0.72245   1.00
C3       0.77595    1.08306    0.77297   1.00
C3       0.77297    0.91694    0.77595   1.00
H1       0.69904    1.02888    0.71167   1.00
H1       0.71167    0.97112    0.69904   1.00
C5       0.80287    1.02065    0.79865   1.00
C5       0.79865    0.97935    0.80287   1.00
H1       0.70138    1.09886    0.71014   1.00
H1       0.71014    0.90114    0.70138   1.00
H1       0.79538    1.10053    0.79048   1.00
H1       0.79048    0.89947    0.79538   1.00
C6       0.83622    1.04234    0.81888   1.00
C6       0.81888    0.95766    0.83622   1.00
H2       0.86256    1.02358    0.82069   1.00
H2       0.84671    1.06737    0.80145   1.00
C6       0.82371    1.05724    0.85929   1.00
H2       0.82069    0.97642    0.86256   1.00
H2       0.80145    0.93263    0.84671   1.00
C6       0.85929    0.94276    0.82371   1.00
H2       0.81378    1.03274    0.87812   1.00
C6       0.85745    1.07832    0.87931   1.00
H2       0.79856    1.07760    0.85627   1.00
C6       0.87931    0.92168    0.85745   1.00
H2       0.85627    0.92240    0.79856   1.00
H2       0.87812    0.96726    0.81378   1.00
H2       0.88257    1.05822    0.88337   1.00
H2       0.86702    1.10380    0.86169   1.00
H2       0.84803    1.08898    0.90843   1.00
H2       0.88337    0.94178    0.88257   1.00
H2       0.86169    0.89620    0.86702   1.00
H2       0.90843    0.91102    0.84803   1.00
C4       0.47933    0.75055    0.75055   1.00
C4       0.52067    0.74945    0.74945   1.00
C3       0.45756    0.72828    0.77801   1.00
C3       0.54244    0.72199    0.77172   1.00
C4       0.45850    0.77414    0.72352   1.00
C4       0.54150    0.77648    0.72586   1.00
C2       0.39648    0.74954    0.75043   1.00
C2       0.60352    0.74957    0.75046   1.00
C3       0.41690    0.72764    0.77755   1.00
C3       0.58310    0.72245    0.77236   1.00
C3       0.41694    0.77297    0.72405   1.00
C3       0.58306    0.77595    0.72703   1.00
H1       0.47112    0.71167    0.80096   1.00
H1       0.52888    0.69904    0.78833   1.00
C5       0.47935    0.79865    0.69713   1.00
C5       0.52065    0.80287    0.70135   1.00
H1       0.40114    0.71014    0.79862   1.00
H1       0.59886    0.70138    0.78986   1.00
H1       0.39947    0.79048    0.70462   1.00
H1       0.60053    0.79538    0.70952   1.00
C6       0.45766    0.81888    0.66378   1.00
C6       0.54234    0.83622    0.68112   1.00
H2       0.47642    0.82069    0.63744   1.00
H2       0.43263    0.80145    0.65329   1.00
C6       0.44276    0.85929    0.67629   1.00
H2       0.52358    0.86256    0.67931   1.00
H2       0.56737    0.84671    0.69855   1.00
C6       0.55724    0.82371    0.64071   1.00
H2       0.46726    0.87812    0.68622   1.00
C6       0.42168    0.87931    0.64255   1.00
H2       0.42240    0.85627    0.70144   1.00
C6       0.57832    0.85745    0.62069   1.00
H2       0.57760    0.79856    0.64373   1.00
H2       0.53274    0.81378    0.62188   1.00
H2       0.44178    0.88337    0.61743   1.00
H2       0.39620    0.86169    0.63298   1.00
H2       0.41102    0.90843    0.65197   1.00
H2       0.55822    0.88257    0.61663   1.00
H2       0.60380    0.86702    0.63831   1.00
H2       0.58898    0.84803    0.59157   1.00
C4       1.02067    0.75055    0.74945   1.00
C4       0.97933    0.74945    0.75055   1.00
C3       1.04244    0.72828    0.72199   1.00
C3       0.95756    0.72199    0.72828   1.00
C4       1.04150    0.77414    0.77648   1.00
C4       0.95850    0.77648    0.77414   1.00
C2       1.10352    0.74954    0.74957   1.00
C2       0.89648    0.74957    0.74954   1.00
C3       1.08310    0.72764    0.72245   1.00
C3       0.91690    0.72245    0.72764   1.00
C3       1.08306    0.77297    0.77595   1.00
C3       0.91694    0.77595    0.77297   1.00
H1       1.02888    0.71167    0.69904   1.00
H1       0.97112    0.69904    0.71167   1.00
C5       1.02065    0.79865    0.80287   1.00
C5       0.97935    0.80287    0.79865   1.00
H1       1.09886    0.71014    0.70138   1.00
H1       0.90114    0.70138    0.71014   1.00
H1       1.10053    0.79048    0.79538   1.00
H1       0.89947    0.79538    0.79048   1.00
C6       1.04234    0.81888    0.83622   1.00
C6       0.95766    0.83622    0.81888   1.00
H2       1.02358    0.82069    0.86256   1.00
H2       1.06737    0.80145    0.84671   1.00
C6       1.05724    0.85929    0.82371   1.00
H2       0.97642    0.86256    0.82069   1.00
H2       0.93263    0.84671    0.80145   1.00
C6       0.94276    0.82371    0.85929   1.00
H2       1.03274    0.87812    0.81378   1.00
C6       1.07832    0.87931    0.85745   1.00
H2       1.07760    0.85627    0.79856   1.00
C6       0.92168    0.85745    0.87931   1.00
H2       0.92240    0.79856    0.85627   1.00
H2       0.96726    0.81378    0.87812   1.00
H2       1.05822    0.88337    0.88257   1.00
H2       1.10380    0.86169    0.86702   1.00
H2       1.08898    0.90843    0.84803   1.00
H2       0.94178    0.88257    0.88337   1.00
H2       0.89620    0.86702    0.86169   1.00
H2       0.91102    0.84803    0.90843   1.00
C4       0.75055    0.47933    0.75055   1.00
C4       0.74945    0.52067    0.74945   1.00
C3       0.77801    0.45756    0.72828   1.00
C3       0.77172    0.54244    0.72199   1.00
C4       0.72352    0.45850    0.77414   1.00
C4       0.72586    0.54150    0.77648   1.00
C2       0.75043    0.39648    0.74954   1.00
C2       0.75046    0.60352    0.74957   1.00
C3       0.77755    0.41690    0.72764   1.00
C3       0.77236    0.58310    0.72245   1.00
C3       0.72405    0.41694    0.77297   1.00
C3       0.72703    0.58306    0.77595   1.00
H1       0.80096    0.47112    0.71167   1.00
H1       0.78833    0.52888    0.69904   1.00
C5       0.69713    0.47935    0.79865   1.00
C5       0.70135    0.52065    0.80287   1.00
H1       0.79862    0.40114    0.71014   1.00
H1       0.78986    0.59886    0.70138   1.00
H1       0.70462    0.39947    0.79048   1.00
H1       0.70952    0.60053    0.79538   1.00
C6       0.66378    0.45766    0.81888   1.00
C6       0.68112    0.54234    0.83622   1.00
H2       0.63744    0.47642    0.82069   1.00
H2       0.65329    0.43263    0.80145   1.00
C6       0.67629    0.44276    0.85929   1.00
H2       0.67931    0.52358    0.86256   1.00
H2       0.69855    0.56737    0.84671   1.00
C6       0.64071    0.55724    0.82371   1.00
H2       0.68622    0.46726    0.87812   1.00
C6       0.64255    0.42168    0.87931   1.00
H2       0.70144    0.42240    0.85627   1.00
C6       0.62069    0.57832    0.85745   1.00
H2       0.64373    0.57760    0.79856   1.00
H2       0.62188    0.53274    0.81378   1.00
H2       0.61743    0.44178    0.88337   1.00
H2       0.63298    0.39620    0.86169   1.00
H2       0.65197    0.41102    0.90843   1.00
H2       0.61663    0.55822    0.88257   1.00
H2       0.63831    0.60380    0.86702   1.00
H2       0.59157    0.58898    0.84803   1.00
C4       0.75055    0.75055    0.47933   1.00
C4       0.74945    0.74945    0.52067   1.00
C3       0.72828    0.77801    0.45756   1.00
C3       0.72199    0.77172    0.54244   1.00
C4       0.77414    0.72352    0.45850   1.00
C4       0.77648    0.72586    0.54150   1.00
C2       0.74954    0.75043    0.39648   1.00
C2       0.74957    0.75046    0.60352   1.00
C3       0.72764    0.77755    0.41690   1.00
C3       0.72245    0.77236    0.58310   1.00
C3       0.77297    0.72405    0.41694   1.00
C3       0.77595    0.72703    0.58306   1.00
H1       0.71167    0.80096    0.47112   1.00
H1       0.69904    0.78833    0.52888   1.00
C5       0.79865    0.69713    0.47935   1.00
C5       0.80287    0.70135    0.52065   1.00
H1       0.71014    0.79862    0.40114   1.00
H1       0.70138    0.78986    0.59886   1.00
H1       0.79048    0.70462    0.39947   1.00
H1       0.79538    0.70952    0.60053   1.00
C6       0.81888    0.66378    0.45766   1.00
C6       0.83622    0.68112    0.54234   1.00
H2       0.82069    0.63744    0.47642   1.00
H2       0.80145    0.65329    0.43263   1.00
C6       0.85929    0.67629    0.44276   1.00
H2       0.86256    0.67931    0.52358   1.00
H2       0.84671    0.69855    0.56737   1.00
C6       0.82371    0.64071    0.55724   1.00
H2       0.87812    0.68622    0.46726   1.00
C6       0.87931    0.64255    0.42168   1.00
H2       0.85627    0.70144    0.42240   1.00
C6       0.85745    0.62069    0.57832   1.00
H2       0.79856    0.64373    0.57760   1.00
H2       0.81378    0.62188    0.53274   1.00
H2       0.88337    0.61743    0.44178   1.00
H2       0.86169    0.63298    0.39620   1.00
H2       0.90843    0.65197    0.41102   1.00
H2       0.88257    0.61663    0.55822   1.00
H2       0.86702    0.63831    0.60380   1.00
H2       0.84803    0.59157    0.58898   1.00
C4       0.25055    0.24945    1.02067   1.00
C4       0.24945    0.25055    0.97933   1.00
C3       0.22828    0.22199    1.04244   1.00
C3       0.22199    0.22828    0.95756   1.00
C4       0.27414    0.27648    1.04150   1.00
C4       0.27648    0.27414    0.95850   1.00
C2       0.24954    0.24957    1.10352   1.00
C2       0.24957    0.24954    0.89648   1.00
C3       0.22764    0.22245    1.08310   1.00
C3       0.22245    0.22764    0.91690   1.00
C3       0.27297    0.27595    1.08306   1.00
C3       0.27595    0.27297    0.91694   1.00
H1       0.21167    0.19904    1.02888   1.00
H1       0.19904    0.21167    0.97112   1.00
C5       0.29865    0.30287    1.02065   1.00
C5       0.30287    0.29865    0.97935   1.00
H1       0.21014    0.20138    1.09886   1.00
H1       0.20138    0.21014    0.90114   1.00
H1       0.29048    0.29538    1.10053   1.00
H1       0.29538    0.29048    0.89947   1.00
C6       0.31888    0.33622    1.04234   1.00
C6       0.33622    0.31888    0.95766   1.00
H2       0.32069    0.36256    1.02358   1.00
H2       0.30145    0.34671    1.06737   1.00
C6       0.35929    0.32371    1.05724   1.00
H2       0.36256    0.32069    0.97642   1.00
H2       0.34671    0.30145    0.93263   1.00
C6       0.32371    0.35929    0.94276   1.00
H2       0.37812    0.31378    1.03274   1.00
C6       0.37931    0.35745    1.07832   1.00
H2       0.35627    0.29856    1.07760   1.00
C6       0.35745    0.37931    0.92168   1.00
H2       0.29856    0.35627    0.92240   1.00
H2       0.31378    0.37812    0.96726   1.00
H2       0.38337    0.38257    1.05822   1.00
H2       0.36169    0.36702    1.10380   1.00
H2       0.40843    0.34803    1.08898   1.00
H2       0.38257    0.38337    0.94178   1.00
H2       0.36702    0.36169    0.89620   1.00
H2       0.34803    0.40843    0.91102   1.00
C4       0.24945    0.52067    0.75055   1.00
C4       0.25055    0.47933    0.74945   1.00
C3       0.22199    0.54244    0.72828   1.00
C3       0.22828    0.45756    0.72199   1.00
C4       0.27648    0.54150    0.77414   1.00
C4       0.27414    0.45850    0.77648   1.00
C2       0.24957    0.60352    0.74954   1.00
C2       0.24954    0.39648    0.74957   1.00
C3       0.22245    0.58310    0.72764   1.00
C3       0.22764    0.41690    0.72245   1.00
C3       0.27595    0.58306    0.77297   1.00
C3       0.27297    0.41694    0.77595   1.00
H1       0.19904    0.52888    0.71167   1.00
H1       0.21167    0.47112    0.69904   1.00
C5       0.30287    0.52065    0.79865   1.00
C5       0.29865    0.47935    0.80287   1.00
H1       0.20138    0.59886    0.71014   1.00
H1       0.21014    0.40114    0.70138   1.00
H1       0.29538    0.60053    0.79048   1.00
H1       0.29048    0.39947    0.79538   1.00
C6       0.33622    0.54234    0.81888   1.00
C6       0.31888    0.45766    0.83622   1.00
H2       0.36256    0.52358    0.82069   1.00
H2       0.34671    0.56737    0.80145   1.00
C6       0.32371    0.55724    0.85929   1.00
H2       0.32069    0.47642    0.86256   1.00
H2       0.30145    0.43263    0.84671   1.00
C6       0.35929    0.44276    0.82371   1.00
H2       0.31378    0.53274    0.87812   1.00
C6       0.35745    0.57832    0.87931   1.00
H2       0.29856    0.57760    0.85627   1.00
C6       0.37931    0.42168    0.85745   1.00
H2       0.35627    0.42240    0.79856   1.00
H2       0.37812    0.46726    0.81378   1.00
H2       0.38257    0.55822    0.88337   1.00
H2       0.36702    0.60380    0.86169   1.00
H2       0.34803    0.58898    0.90843   1.00
H2       0.38337    0.44178    0.88257   1.00
H2       0.36169    0.39620    0.86702   1.00
H2       0.40843    0.41102    0.84803   1.00
C4       -0.02067   0.25055    0.75055   1.00
C4       0.02067    0.24945    0.74945   1.00
C3       -0.04244   0.22828    0.77801   1.00
C3       0.04244    0.22199    0.77172   1.00
C4       -0.04150   0.27414    0.72352   1.00
C4       0.04150    0.27648    0.72586   1.00
C2       -0.10352   0.24954    0.75043   1.00
C2       0.10352    0.24957    0.75046   1.00
C3       -0.08310   0.22764    0.77755   1.00
C3       0.08310    0.22245    0.77236   1.00
C3       -0.08306   0.27297    0.72405   1.00
C3       0.08306    0.27595    0.72703   1.00
H1       -0.02888   0.21167    0.80096   1.00
H1       0.02888    0.19904    0.78833   1.00
C5       -0.02065   0.29865    0.69713   1.00
C5       0.02065    0.30287    0.70135   1.00
H1       -0.09886   0.21014    0.79862   1.00
H1       0.09886    0.20138    0.78986   1.00
H1       -0.10053   0.29048    0.70462   1.00
H1       0.10053    0.29538    0.70952   1.00
C6       -0.04234   0.31888    0.66378   1.00
C6       0.04234    0.33622    0.68112   1.00
H2       -0.02358   0.32069    0.63744   1.00
H2       -0.06737   0.30145    0.65329   1.00
C6       -0.05724   0.35929    0.67629   1.00
H2       0.02358    0.36256    0.67931   1.00
H2       0.06737    0.34671    0.69855   1.00
C6       0.05724    0.32371    0.64071   1.00
H2       -0.03274   0.37812    0.68622   1.00
C6       -0.07832   0.37931    0.64255   1.00
H2       -0.07760   0.35627    0.70144   1.00
C6       0.07832    0.35745    0.62069   1.00
H2       0.07760    0.29856    0.64373   1.00
H2       0.03274    0.31378    0.62188   1.00
H2       -0.05822   0.38337    0.61743   1.00
H2       -0.10380   0.36169    0.63298   1.00
H2       -0.08898   0.40843    0.65197   1.00
H2       0.05822    0.38257    0.61663   1.00
H2       0.10380    0.36702    0.63831   1.00
H2       0.08898    0.34803    0.59157   1.00
C4       0.52067    0.25055    0.74945   1.00
C4       0.47933    0.24945    0.75055   1.00
C3       0.54244    0.22828    0.72199   1.00
C3       0.45756    0.22199    0.72828   1.00
C4       0.54150    0.27414    0.77648   1.00
C4       0.45850    0.27648    0.77414   1.00
C2       0.60352    0.24954    0.74957   1.00
C2       0.39648    0.24957    0.74954   1.00
C3       0.58310    0.22764    0.72245   1.00
C3       0.41690    0.22245    0.72764   1.00
C3       0.58306    0.27297    0.77595   1.00
C3       0.41694    0.27595    0.77297   1.00
H1       0.52888    0.21167    0.69904   1.00
H1       0.47112    0.19904    0.71167   1.00
C5       0.52065    0.29865    0.80287   1.00
C5       0.47935    0.30287    0.79865   1.00
H1       0.59886    0.21014    0.70138   1.00
H1       0.40114    0.20138    0.71014   1.00
H1       0.60053    0.29048    0.79538   1.00
H1       0.39947    0.29538    0.79048   1.00
C6       0.54234    0.31888    0.83622   1.00
C6       0.45766    0.33622    0.81888   1.00
H2       0.52358    0.32069    0.86256   1.00
H2       0.56737    0.30145    0.84671   1.00
C6       0.55724    0.35929    0.82371   1.00
H2       0.47642    0.36256    0.82069   1.00
H2       0.43263    0.34671    0.80145   1.00
C6       0.44276    0.32371    0.85929   1.00
H2       0.53274    0.37812    0.81378   1.00
C6       0.57832    0.37931    0.85745   1.00
H2       0.57760    0.35627    0.79856   1.00
C6       0.42168    0.35745    0.87931   1.00
H2       0.42240    0.29856    0.85627   1.00
H2       0.46726    0.31378    0.87812   1.00
H2       0.55822    0.38337    0.88257   1.00
H2       0.60380    0.36169    0.86702   1.00
H2       0.58898    0.40843    0.84803   1.00
H2       0.44178    0.38257    0.88337   1.00
H2       0.39620    0.36702    0.86169   1.00
H2       0.41102    0.34803    0.90843   1.00
C4       0.25055    -0.02067   0.75055   1.00
C4       0.24945    0.02067    0.74945   1.00
C3       0.27801    -0.04244   0.72828   1.00
C3       0.27172    0.04244    0.72199   1.00
C4       0.22352    -0.04150   0.77414   1.00
C4       0.22586    0.04150    0.77648   1.00
C2       0.25043    -0.10352   0.74954   1.00
C2       0.25046    0.10352    0.74957   1.00
C3       0.27755    -0.08310   0.72764   1.00
C3       0.27236    0.08310    0.72245   1.00
C3       0.22405    -0.08306   0.77297   1.00
C3       0.22703    0.08306    0.77595   1.00
H1       0.30096    -0.02888   0.71167   1.00
H1       0.28833    0.02888    0.69904   1.00
C5       0.19713    -0.02065   0.79865   1.00
C5       0.20135    0.02065    0.80287   1.00
H1       0.29862    -0.09886   0.71014   1.00
H1       0.28986    0.09886    0.70138   1.00
H1       0.20462    -0.10053   0.79048   1.00
H1       0.20952    0.10053    0.79538   1.00
C6       0.16378    -0.04234   0.81888   1.00
C6       0.18112    0.04234    0.83622   1.00
H2       0.13744    -0.02358   0.82069   1.00
H2       0.15329    -0.06737   0.80145   1.00
C6       0.17629    -0.05724   0.85929   1.00
H2       0.17931    0.02358    0.86256   1.00
H2       0.19855    0.06737    0.84671   1.00
C6       0.14071    0.05724    0.82371   1.00
H2       0.18622    -0.03274   0.87812   1.00
C6       0.14255    -0.07832   0.87931   1.00
H2       0.20144    -0.07760   0.85627   1.00
C6       0.12069    0.07832    0.85745   1.00
H2       0.14373    0.07760    0.79856   1.00
H2       0.12188    0.03274    0.81378   1.00
H2       0.11743    -0.05822   0.88337   1.00
H2       0.13298    -0.10380   0.86169   1.00
H2       0.15197    -0.08898   0.90843   1.00
H2       0.11663    0.05822    0.88257   1.00
H2       0.13831    0.10380    0.86702   1.00
H2       0.09157    0.08898    0.84803   1.00
C4       0.25055    0.25055    0.47933   1.00
C4       0.24945    0.24945    0.52067   1.00
C3       0.22828    0.27801    0.45756   1.00
C3       0.22199    0.27172    0.54244   1.00
C4       0.27414    0.22352    0.45850   1.00
C4       0.27648    0.22586    0.54150   1.00
C2       0.24954    0.25043    0.39648   1.00
C2       0.24957    0.25046    0.60352   1.00
C3       0.22764    0.27755    0.41690   1.00
C3       0.22245    0.27236    0.58310   1.00
C3       0.27297    0.22405    0.41694   1.00
C3       0.27595    0.22703    0.58306   1.00
H1       0.21167    0.30096    0.47112   1.00
H1       0.19904    0.28833    0.52888   1.00
C5       0.29865    0.19713    0.47935   1.00
C5       0.30287    0.20135    0.52065   1.00
H1       0.21014    0.29862    0.40114   1.00
H1       0.20138    0.28986    0.59886   1.00
H1       0.29048    0.20462    0.39947   1.00
H1       0.29538    0.20952    0.60053   1.00
C6       0.31888    0.16378    0.45766   1.00
C6       0.33622    0.18112    0.54234   1.00
H2       0.32069    0.13744    0.47642   1.00
H2       0.30145    0.15329    0.43263   1.00
C6       0.35929    0.17629    0.44276   1.00
H2       0.36256    0.17931    0.52358   1.00
H2       0.34671    0.19855    0.56737   1.00
C6       0.32371    0.14071    0.55724   1.00
H2       0.37812    0.18622    0.46726   1.00
C6       0.37931    0.14255    0.42168   1.00
H2       0.35627    0.20144    0.42240   1.00
C6       0.35745    0.12069    0.57832   1.00
H2       0.29856    0.14373    0.57760   1.00
H2       0.31378    0.12188    0.53274   1.00
H2       0.38337    0.11743    0.44178   1.00
H2       0.36169    0.13298    0.39620   1.00
H2       0.40843    0.15197    0.41102   1.00
H2       0.38257    0.11663    0.55822   1.00
H2       0.36702    0.13831    0.60380   1.00
H2       0.34803    0.09157    0.58898   1.00
C4       0.25055    0.74945    0.52067   1.00
C4       0.24945    0.75055    0.47933   1.00
C3       0.22828    0.72199    0.54244   1.00
C3       0.22199    0.72828    0.45756   1.00
C4       0.27414    0.77648    0.54150   1.00
C4       0.27648    0.77414    0.45850   1.00
C2       0.24954    0.74957    0.60352   1.00
C2       0.24957    0.74954    0.39648   1.00
C3       0.22764    0.72245    0.58310   1.00
C3       0.22245    0.72764    0.41690   1.00
C3       0.27297    0.77595    0.58306   1.00
C3       0.27595    0.77297    0.41694   1.00
H1       0.21167    0.69904    0.52888   1.00
H1       0.19904    0.71167    0.47112   1.00
C5       0.29865    0.80287    0.52065   1.00
C5       0.30287    0.79865    0.47935   1.00
H1       0.21014    0.70138    0.59886   1.00
H1       0.20138    0.71014    0.40114   1.00
H1       0.29048    0.79538    0.60053   1.00
H1       0.29538    0.79048    0.39947   1.00
C6       0.31888    0.83622    0.54234   1.00
C6       0.33622    0.81888    0.45766   1.00
H2       0.32069    0.86256    0.52358   1.00
H2       0.30145    0.84671    0.56737   1.00
C6       0.35929    0.82371    0.55724   1.00
H2       0.36256    0.82069    0.47642   1.00
H2       0.34671    0.80145    0.43263   1.00
C6       0.32371    0.85929    0.44276   1.00
H2       0.37812    0.81378    0.53274   1.00
C6       0.37931    0.85745    0.57832   1.00
H2       0.35627    0.79856    0.57760   1.00
C6       0.35745    0.87931    0.42168   1.00
H2       0.29856    0.85627    0.42240   1.00
H2       0.31378    0.87812    0.46726   1.00
H2       0.38337    0.88257    0.55822   1.00
H2       0.36169    0.86702    0.60380   1.00
H2       0.40843    0.84803    0.58898   1.00
H2       0.38257    0.88337    0.44178   1.00
H2       0.36702    0.86169    0.39620   1.00
H2       0.34803    0.90843    0.41102   1.00
C4       0.24945    1.02067    0.25055   1.00
C4       0.25055    0.97933    0.24945   1.00
C3       0.22199    1.04244    0.22828   1.00
C3       0.22828    0.95756    0.22199   1.00
C4       0.27648    1.04150    0.27414   1.00
C4       0.27414    0.95850    0.27648   1.00
C2       0.24957    1.10352    0.24954   1.00
C2       0.24954    0.89648    0.24957   1.00
C3       0.22245    1.08310    0.22764   1.00
C3       0.22764    0.91690    0.22245   1.00
C3       0.27595    1.08306    0.27297   1.00
C3       0.27297    0.91694    0.27595   1.00
H1       0.19904    1.02888    0.21167   1.00
H1       0.21167    0.97112    0.19904   1.00
C5       0.30287    1.02065    0.29865   1.00
C5       0.29865    0.97935    0.30287   1.00
H1       0.20138    1.09886    0.21014   1.00
H1       0.21014    0.90114    0.20138   1.00
H1       0.29538    1.10053    0.29048   1.00
H1       0.29048    0.89947    0.29538   1.00
C6       0.33622    1.04234    0.31888   1.00
C6       0.31888    0.95766    0.33622   1.00
H2       0.36256    1.02358    0.32069   1.00
H2       0.34671    1.06737    0.30145   1.00
C6       0.32371    1.05724    0.35929   1.00
H2       0.32069    0.97642    0.36256   1.00
H2       0.30145    0.93263    0.34671   1.00
C6       0.35929    0.94276    0.32371   1.00
H2       0.31378    1.03274    0.37812   1.00
C6       0.35745    1.07832    0.37931   1.00
H2       0.29856    1.07760    0.35627   1.00
C6       0.37931    0.92168    0.35745   1.00
H2       0.35627    0.92240    0.29856   1.00
H2       0.37812    0.96726    0.31378   1.00
H2       0.38257    1.05822    0.38337   1.00
H2       0.36702    1.10380    0.36169   1.00
H2       0.34803    1.08898    0.40843   1.00
H2       0.38337    0.94178    0.38257   1.00
H2       0.36169    0.89620    0.36702   1.00
H2       0.40843    0.91102    0.34803   1.00
C4       -0.02067   0.75055    0.25055   1.00
C4       0.02067    0.74945    0.24945   1.00
C3       -0.04244   0.72828    0.27801   1.00
C3       0.04244    0.72199    0.27172   1.00
C4       -0.04150   0.77414    0.22352   1.00
C4       0.04150    0.77648    0.22586   1.00
C2       -0.10352   0.74954    0.25043   1.00
C2       0.10352    0.74957    0.25046   1.00
C3       -0.08310   0.72764    0.27755   1.00
C3       0.08310    0.72245    0.27236   1.00
C3       -0.08306   0.77297    0.22405   1.00
C3       0.08306    0.77595    0.22703   1.00
H1       -0.02888   0.71167    0.30096   1.00
H1       0.02888    0.69904    0.28833   1.00
C5       -0.02065   0.79865    0.19713   1.00
C5       0.02065    0.80287    0.20135   1.00
H1       -0.09886   0.71014    0.29862   1.00
H1       0.09886    0.70138    0.28986   1.00
H1       -0.10053   0.79048    0.20462   1.00
H1       0.10053    0.79538    0.20952   1.00
C6       -0.04234   0.81888    0.16378   1.00
C6       0.04234    0.83622    0.18112   1.00
H2       -0.02358   0.82069    0.13744   1.00
H2       -0.06737   0.80145    0.15329   1.00
C6       -0.05724   0.85929    0.17629   1.00
H2       0.02358    0.86256    0.17931   1.00
H2       0.06737    0.84671    0.19855   1.00
C6       0.05724    0.82371    0.14071   1.00
H2       -0.03274   0.87812    0.18622   1.00
C6       -0.07832   0.87931    0.14255   1.00
H2       -0.07760   0.85627    0.20144   1.00
C6       0.07832    0.85745    0.12069   1.00
H2       0.07760    0.79856    0.14373   1.00
H2       0.03274    0.81378    0.12188   1.00
H2       -0.05822   0.88337    0.11743   1.00
H2       -0.10380   0.86169    0.13298   1.00
H2       -0.08898   0.90843    0.15197   1.00
H2       0.05822    0.88257    0.11663   1.00
H2       0.10380    0.86702    0.13831   1.00
H2       0.08898    0.84803    0.09157   1.00
C4       0.52067    0.75055    0.24945   1.00
C4       0.47933    0.74945    0.25055   1.00
C3       0.54244    0.72828    0.22199   1.00
C3       0.45756    0.72199    0.22828   1.00
C4       0.54150    0.77414    0.27648   1.00
C4       0.45850    0.77648    0.27414   1.00
C2       0.60352    0.74954    0.24957   1.00
C2       0.39648    0.74957    0.24954   1.00
C3       0.58310    0.72764    0.22245   1.00
C3       0.41690    0.72245    0.22764   1.00
C3       0.58306    0.77297    0.27595   1.00
C3       0.41694    0.77595    0.27297   1.00
H1       0.52888    0.71167    0.19904   1.00
H1       0.47112    0.69904    0.21167   1.00
C5       0.52065    0.79865    0.30287   1.00
C5       0.47935    0.80287    0.29865   1.00
H1       0.59886    0.71014    0.20138   1.00
H1       0.40114    0.70138    0.21014   1.00
H1       0.60053    0.79048    0.29538   1.00
H1       0.39947    0.79538    0.29048   1.00
C6       0.54234    0.81888    0.33622   1.00
C6       0.45766    0.83622    0.31888   1.00
H2       0.52358    0.82069    0.36256   1.00
H2       0.56737    0.80145    0.34671   1.00
C6       0.55724    0.85929    0.32371   1.00
H2       0.47642    0.86256    0.32069   1.00
H2       0.43263    0.84671    0.30145   1.00
C6       0.44276    0.82371    0.35929   1.00
H2       0.53274    0.87812    0.31378   1.00
C6       0.57832    0.87931    0.35745   1.00
H2       0.57760    0.85627    0.29856   1.00
C6       0.42168    0.85745    0.37931   1.00
H2       0.42240    0.79856    0.35627   1.00
H2       0.46726    0.81378    0.37812   1.00
H2       0.55822    0.88337    0.38257   1.00
H2       0.60380    0.86169    0.36702   1.00
H2       0.58898    0.90843    0.34803   1.00
H2       0.44178    0.88257    0.38337   1.00
H2       0.39620    0.86702    0.36169   1.00
H2       0.41102    0.84803    0.40843   1.00
C4       0.25055    0.47933    0.25055   1.00
C4       0.24945    0.52067    0.24945   1.00
C3       0.27801    0.45756    0.22828   1.00
C3       0.27172    0.54244    0.22199   1.00
C4       0.22352    0.45850    0.27414   1.00
C4       0.22586    0.54150    0.27648   1.00
C2       0.25043    0.39648    0.24954   1.00
C2       0.25046    0.60352    0.24957   1.00
C3       0.27755    0.41690    0.22764   1.00
C3       0.27236    0.58310    0.22245   1.00
C3       0.22405    0.41694    0.27297   1.00
C3       0.22703    0.58306    0.27595   1.00
H1       0.30096    0.47112    0.21167   1.00
H1       0.28833    0.52888    0.19904   1.00
C5       0.19713    0.47935    0.29865   1.00
C5       0.20135    0.52065    0.30287   1.00
H1       0.29862    0.40114    0.21014   1.00
H1       0.28986    0.59886    0.20138   1.00
H1       0.20462    0.39947    0.29048   1.00
H1       0.20952    0.60053    0.29538   1.00
C6       0.16378    0.45766    0.31888   1.00
C6       0.18112    0.54234    0.33622   1.00
H2       0.13744    0.47642    0.32069   1.00
H2       0.15329    0.43263    0.30145   1.00
C6       0.17629    0.44276    0.35929   1.00
H2       0.17931    0.52358    0.36256   1.00
H2       0.19855    0.56737    0.34671   1.00
C6       0.14071    0.55724    0.32371   1.00
H2       0.18622    0.46726    0.37812   1.00
C6       0.14255    0.42168    0.37931   1.00
H2       0.20144    0.42240    0.35627   1.00
C6       0.12069    0.57832    0.35745   1.00
H2       0.14373    0.57760    0.29856   1.00
H2       0.12188    0.53274    0.31378   1.00
H2       0.11743    0.44178    0.38337   1.00
H2       0.13298    0.39620    0.36169   1.00
H2       0.15197    0.41102    0.40843   1.00
H2       0.11663    0.55822    0.38257   1.00
H2       0.13831    0.60380    0.36702   1.00
H2       0.09157    0.58898    0.34803   1.00
C4       0.25055    0.75055    -0.02067   1.00
C4       0.24945    0.74945    0.02067   1.00
C3       0.22828    0.77801    -0.04244   1.00
C3       0.22199    0.77172    0.04244   1.00
C4       0.27414    0.72352    -0.04150   1.00
C4       0.27648    0.72586    0.04150   1.00
C2       0.24954    0.75043    -0.10352   1.00
C2       0.24957    0.75046    0.10352   1.00
C3       0.22764    0.77755    -0.08310   1.00
C3       0.22245    0.77236    0.08310   1.00
C3       0.27297    0.72405    -0.08306   1.00
C3       0.27595    0.72703    0.08306   1.00
H1       0.21167    0.80096    -0.02888   1.00
H1       0.19904    0.78833    0.02888   1.00
C5       0.29865    0.69713    -0.02065   1.00
C5       0.30287    0.70135    0.02065   1.00
H1       0.21014    0.79862    -0.09886   1.00
H1       0.20138    0.78986    0.09886   1.00
H1       0.29048    0.70462    -0.10053   1.00
H1       0.29538    0.70952    0.10053   1.00
C6       0.31888    0.66378    -0.04234   1.00
C6       0.33622    0.68112    0.04234   1.00
H2       0.32069    0.63744    -0.02358   1.00
H2       0.30145    0.65329    -0.06737   1.00
C6       0.35929    0.67629    -0.05724   1.00
H2       0.36256    0.67931    0.02358   1.00
H2       0.34671    0.69855    0.06737   1.00
C6       0.32371    0.64071    0.05724   1.00
H2       0.37812    0.68622    -0.03274   1.00
C6       0.37931    0.64255    -0.07832   1.00
H2       0.35627    0.70144    -0.07760   1.00
C6       0.35745    0.62069    0.07832   1.00
H2       0.29856    0.64373    0.07760   1.00
H2       0.31378    0.62188    0.03274   1.00
H2       0.38337    0.61743    -0.05822   1.00
H2       0.36169    0.63298    -0.10380   1.00
H2       0.40843    0.65197    -0.08898   1.00
H2       0.38257    0.61663    0.05822   1.00
H2       0.36702    0.63831    0.10380   1.00
H2       0.34803    0.59157    0.08898   1.00
C4       0.75055    0.24945    0.52067   1.00
C4       0.74945    0.25055    0.47933   1.00
C3       0.72828    0.22199    0.54244   1.00
C3       0.72199    0.22828    0.45756   1.00
C4       0.77414    0.27648    0.54150   1.00
C4       0.77648    0.27414    0.45850   1.00
C2       0.74954    0.24957    0.60352   1.00
C2       0.74957    0.24954    0.39648   1.00
C3       0.72764    0.22245    0.58310   1.00
C3       0.72245    0.22764    0.41690   1.00
C3       0.77297    0.27595    0.58306   1.00
C3       0.77595    0.27297    0.41694   1.00
H1       0.71167    0.19904    0.52888   1.00
H1       0.69904    0.21167    0.47112   1.00
C5       0.79865    0.30287    0.52065   1.00
C5       0.80287    0.29865    0.47935   1.00
H1       0.71014    0.20138    0.59886   1.00
H1       0.70138    0.21014    0.40114   1.00
H1       0.79048    0.29538    0.60053   1.00
H1       0.79538    0.29048    0.39947   1.00
C6       0.81888    0.33622    0.54234   1.00
C6       0.83622    0.31888    0.45766   1.00
H2       0.82069    0.36256    0.52358   1.00
H2       0.80145    0.34671    0.56737   1.00
C6       0.85929    0.32371    0.55724   1.00
H2       0.86256    0.32069    0.47642   1.00
H2       0.84671    0.30145    0.43263   1.00
C6       0.82371    0.35929    0.44276   1.00
H2       0.87812    0.31378    0.53274   1.00
C6       0.87931    0.35745    0.57832   1.00
H2       0.85627    0.29856    0.57760   1.00
C6       0.85745    0.37931    0.42168   1.00
H2       0.79856    0.35627    0.42240   1.00
H2       0.81378    0.37812    0.46726   1.00
H2       0.88337    0.38257    0.55822   1.00
H2       0.86169    0.36702    0.60380   1.00
H2       0.90843    0.34803    0.58898   1.00
H2       0.88257    0.38337    0.44178   1.00
H2       0.86702    0.36169    0.39620   1.00
H2       0.84803    0.40843    0.41102   1.00
C4       0.74945    0.52067    0.25055   1.00
C4       0.75055    0.47933    0.24945   1.00
C3       0.72199    0.54244    0.22828   1.00
C3       0.72828    0.45756    0.22199   1.00
C4       0.77648    0.54150    0.27414   1.00
C4       0.77414    0.45850    0.27648   1.00
C2       0.74957    0.60352    0.24954   1.00
C2       0.74954    0.39648    0.24957   1.00
C3       0.72245    0.58310    0.22764   1.00
C3       0.72764    0.41690    0.22245   1.00
C3       0.77595    0.58306    0.27297   1.00
C3       0.77297    0.41694    0.27595   1.00
H1       0.69904    0.52888    0.21167   1.00
H1       0.71167    0.47112    0.19904   1.00
C5       0.80287    0.52065    0.29865   1.00
C5       0.79865    0.47935    0.30287   1.00
H1       0.70138    0.59886    0.21014   1.00
H1       0.71014    0.40114    0.20138   1.00
H1       0.79538    0.60053    0.29048   1.00
H1       0.79048    0.39947    0.29538   1.00
C6       0.83622    0.54234    0.31888   1.00
C6       0.81888    0.45766    0.33622   1.00
H2       0.86256    0.52358    0.32069   1.00
H2       0.84671    0.56737    0.30145   1.00
C6       0.82371    0.55724    0.35929   1.00
H2       0.82069    0.47642    0.36256   1.00
H2       0.80145    0.43263    0.34671   1.00
C6       0.85929    0.44276    0.32371   1.00
H2       0.81378    0.53274    0.37812   1.00
C6       0.85745    0.57832    0.37931   1.00
H2       0.79856    0.57760    0.35627   1.00
C6       0.87931    0.42168    0.35745   1.00
H2       0.85627    0.42240    0.29856   1.00
H2       0.87812    0.46726    0.31378   1.00
H2       0.88257    0.55822    0.38337   1.00
H2       0.86702    0.60380    0.36169   1.00
H2       0.84803    0.58898    0.40843   1.00
H2       0.88337    0.44178    0.38257   1.00
H2       0.86169    0.39620    0.36702   1.00
H2       0.90843    0.41102    0.34803   1.00
C4       0.47933    0.25055    0.25055   1.00
C4       0.52067    0.24945    0.24945   1.00
C3       0.45756    0.22828    0.27801   1.00
C3       0.54244    0.22199    0.27172   1.00
C4       0.45850    0.27414    0.22352   1.00
C4       0.54150    0.27648    0.22586   1.00
C2       0.39648    0.24954    0.25043   1.00
C2       0.60352    0.24957    0.25046   1.00
C3       0.41690    0.22764    0.27755   1.00
C3       0.58310    0.22245    0.27236   1.00
C3       0.41694    0.27297    0.22405   1.00
C3       0.58306    0.27595    0.22703   1.00
H1       0.47112    0.21167    0.30096   1.00
H1       0.52888    0.19904    0.28833   1.00
C5       0.47935    0.29865    0.19713   1.00
C5       0.52065    0.30287    0.20135   1.00
H1       0.40114    0.21014    0.29862   1.00
H1       0.59886    0.20138    0.28986   1.00
H1       0.39947    0.29048    0.20462   1.00
H1       0.60053    0.29538    0.20952   1.00
C6       0.45766    0.31888    0.16378   1.00
C6       0.54234    0.33622    0.18112   1.00
H2       0.47642    0.32069    0.13744   1.00
H2       0.43263    0.30145    0.15329   1.00
C6       0.44276    0.35929    0.17629   1.00
H2       0.52358    0.36256    0.17931   1.00
H2       0.56737    0.34671    0.19855   1.00
C6       0.55724    0.32371    0.14071   1.00
H2       0.46726    0.37812    0.18622   1.00
C6       0.42168    0.37931    0.14255   1.00
H2       0.42240    0.35627    0.20144   1.00
C6       0.57832    0.35745    0.12069   1.00
H2       0.57760    0.29856    0.14373   1.00
H2       0.53274    0.31378    0.12188   1.00
H2       0.44178    0.38337    0.11743   1.00
H2       0.39620    0.36169    0.13298   1.00
H2       0.41102    0.40843    0.15197   1.00
H2       0.55822    0.38257    0.11663   1.00
H2       0.60380    0.36702    0.13831   1.00
H2       0.58898    0.34803    0.09157   1.00
C4       1.02067    0.25055    0.24945   1.00
C4       0.97933    0.24945    0.25055   1.00
C3       1.04244    0.22828    0.22199   1.00
C3       0.95756    0.22199    0.22828   1.00
C4       1.04150    0.27414    0.27648   1.00
C4       0.95850    0.27648    0.27414   1.00
C2       1.10352    0.24954    0.24957   1.00
C2       0.89648    0.24957    0.24954   1.00
C3       1.08310    0.22764    0.22245   1.00
C3       0.91690    0.22245    0.22764   1.00
C3       1.08306    0.27297    0.27595   1.00
C3       0.91694    0.27595    0.27297   1.00
H1       1.02888    0.21167    0.19904   1.00
H1       0.97112    0.19904    0.21167   1.00
C5       1.02065    0.29865    0.30287   1.00
C5       0.97935    0.30287    0.29865   1.00
H1       1.09886    0.21014    0.20138   1.00
H1       0.90114    0.20138    0.21014   1.00
H1       1.10053    0.29048    0.29538   1.00
H1       0.89947    0.29538    0.29048   1.00
C6       1.04234    0.31888    0.33622   1.00
C6       0.95766    0.33622    0.31888   1.00
H2       1.02358    0.32069    0.36256   1.00
H2       1.06737    0.30145    0.34671   1.00
C6       1.05724    0.35929    0.32371   1.00
H2       0.97642    0.36256    0.32069   1.00
H2       0.93263    0.34671    0.30145   1.00
C6       0.94276    0.32371    0.35929   1.00
H2       1.03274    0.37812    0.31378   1.00
C6       1.07832    0.37931    0.35745   1.00
H2       1.07760    0.35627    0.29856   1.00
C6       0.92168    0.35745    0.37931   1.00
H2       0.92240    0.29856    0.35627   1.00
H2       0.96726    0.31378    0.37812   1.00
H2       1.05822    0.38337    0.38257   1.00
H2       1.10380    0.36169    0.36702   1.00
H2       1.08898    0.40843    0.34803   1.00
H2       0.94178    0.38257    0.38337   1.00
H2       0.89620    0.36702    0.36169   1.00
H2       0.91102    0.34803    0.40843   1.00
C4       0.75055    -0.02067   0.25055   1.00
C4       0.74945    0.02067    0.24945   1.00
C3       0.77801    -0.04244   0.22828   1.00
C3       0.77172    0.04244    0.22199   1.00
C4       0.72352    -0.04150   0.27414   1.00
C4       0.72586    0.04150    0.27648   1.00
C2       0.75043    -0.10352   0.24954   1.00
C2       0.75046    0.10352    0.24957   1.00
C3       0.77755    -0.08310   0.22764   1.00
C3       0.77236    0.08310    0.22245   1.00
C3       0.72405    -0.08306   0.27297   1.00
C3       0.72703    0.08306    0.27595   1.00
H1       0.80096    -0.02888   0.21167   1.00
H1       0.78833    0.02888    0.19904   1.00
C5       0.69713    -0.02065   0.29865   1.00
C5       0.70135    0.02065    0.30287   1.00
H1       0.79862    -0.09886   0.21014   1.00
H1       0.78986    0.09886    0.20138   1.00
H1       0.70462    -0.10053   0.29048   1.00
H1       0.70952    0.10053    0.29538   1.00
C6       0.66378    -0.04234   0.31888   1.00
C6       0.68112    0.04234    0.33622   1.00
H2       0.63744    -0.02358   0.32069   1.00
H2       0.65329    -0.06737   0.30145   1.00
C6       0.67629    -0.05724   0.35929   1.00
H2       0.67931    0.02358    0.36256   1.00
H2       0.69855    0.06737    0.34671   1.00
C6       0.64071    0.05724    0.32371   1.00
H2       0.68622    -0.03274   0.37812   1.00
C6       0.64255    -0.07832   0.37931   1.00
H2       0.70144    -0.07760   0.35627   1.00
C6       0.62069    0.07832    0.35745   1.00
H2       0.64373    0.07760    0.29856   1.00
H2       0.62188    0.03274    0.31378   1.00
H2       0.61743    -0.05822   0.38337   1.00
H2       0.63298    -0.10380   0.36169   1.00
H2       0.65197    -0.08898   0.40843   1.00
H2       0.61663    0.05822    0.38257   1.00
H2       0.63831    0.10380    0.36702   1.00
H2       0.59157    0.08898    0.34803   1.00
C4       0.75055    0.25055    -0.02067   1.00
C4       0.74945    0.24945    0.02067   1.00
C3       0.72828    0.27801    -0.04244   1.00
C3       0.72199    0.27172    0.04244   1.00
C4       0.77414    0.22352    -0.04150   1.00
C4       0.77648    0.22586    0.04150   1.00
C2       0.74954    0.25043    -0.10352   1.00
C2       0.74957    0.25046    0.10352   1.00
C3       0.72764    0.27755    -0.08310   1.00
C3       0.72245    0.27236    0.08310   1.00
C3       0.77297    0.22405    -0.08306   1.00
C3       0.77595    0.22703    0.08306   1.00
H1       0.71167    0.30096    -0.02888   1.00
H1       0.69904    0.28833    0.02888   1.00
C5       0.79865    0.19713    -0.02065   1.00
C5       0.80287    0.20135    0.02065   1.00
H1       0.71014    0.29862    -0.09886   1.00
H1       0.70138    0.28986    0.09886   1.00
H1       0.79048    0.20462    -0.10053   1.00
H1       0.79538    0.20952    0.10053   1.00
C6       0.81888    0.16378    -0.04234   1.00
C6       0.83622    0.18112    0.04234   1.00
H2       0.82069    0.13744    -0.02358   1.00
H2       0.80145    0.15329    -0.06737   1.00
C6       0.85929    0.17629    -0.05724   1.00
H2       0.86256    0.17931    0.02358   1.00
H2       0.84671    0.19855    0.06737   1.00
C6       0.82371    0.14071    0.05724   1.00
H2       0.87812    0.18622    -0.03274   1.00
C6       0.87931    0.14255    -0.07832   1.00
H2       0.85627    0.20144    -0.07760   1.00
C6       0.85745    0.12069    0.07832   1.00
H2       0.79856    0.14373    0.07760   1.00
H2       0.81378    0.12188    0.03274   1.00
H2       0.88337    0.11743    -0.05822   1.00
H2       0.86169    0.13298    -0.10380   1.00
H2       0.90843    0.15197    -0.08898   1.00
H2       0.88257    0.11663    0.05822   1.00
H2       0.86702    0.13831    0.10380   1.00
H2       0.84803    0.09157    0.08898   1.00
