data_IRMOF10_SG202_Ligand5_label_m.

_audit_creation_method             'generated by an auxiliary program of Tobunporous'

_symmetry_space_group_name_H-M     'P 1'
_symmetry_Int_Tables_number        1
_symmetry_cell_setting             triclinic

_cell_length_a                    34.2800
_cell_length_b                    34.2800
_cell_length_c                    34.2800
_cell_angle_alpha                 90.0000
_cell_angle_beta                  90.0000
_cell_angle_gamma                 90.0000

loop_
_atom_site_label
_atom_site_fract_x
_atom_site_fract_y
_atom_site_fract_z
_atom_site_occupancy
O1       0.75000    0.75000    0.75000   1.00
Zn1      0.71720    0.78280    0.78280   1.00
Zn1      0.78280    0.71720    0.78280   1.00
Zn1      0.78280    0.78280    0.71720   1.00
Zn1      0.71720    0.71720    0.71720   1.00
O2       0.72650    0.77350    0.83820   1.00
O2       0.72650    0.83820    0.77350   1.00
O2       0.66180    0.77350    0.77350   1.00
O2       0.77350    0.72650    0.83820   1.00
O2       0.83820    0.72650    0.77350   1.00
O2       0.77350    0.66180    0.77350   1.00
O2       0.77350    0.83820    0.72650   1.00
O2       0.83820    0.77350    0.72650   1.00
O2       0.77350    0.77350    0.66180   1.00
O2       0.66180    0.72650    0.72650   1.00
O2       0.72650    0.66180    0.72650   1.00
O2       0.72650    0.72650    0.66180   1.00
C1       0.75000    0.75000    0.85520   1.00
C1       0.75000    0.85520    0.75000   1.00
C1       0.64480    0.75000    0.75000   1.00
C1       0.85520    0.75000    0.75000   1.00
C1       0.75000    0.64480    0.75000   1.00
C1       0.75000    0.75000    0.64480   1.00
O1       0.25000    0.25000    0.75000   1.00
Zn1      0.21720    0.28280    0.78280   1.00
Zn1      0.28280    0.21720    0.78280   1.00
Zn1      0.28280    0.28280    0.71720   1.00
Zn1      0.21720    0.21720    0.71720   1.00
O2       0.22650    0.27350    0.83820   1.00
O2       0.22650    0.33820    0.77350   1.00
O2       0.16180    0.27350    0.77350   1.00
O2       0.27350    0.22650    0.83820   1.00
O2       0.33820    0.22650    0.77350   1.00
O2       0.27350    0.16180    0.77350   1.00
O2       0.27350    0.33820    0.72650   1.00
O2       0.33820    0.27350    0.72650   1.00
O2       0.27350    0.27350    0.66180   1.00
O2       0.16180    0.22650    0.72650   1.00
O2       0.22650    0.16180    0.72650   1.00
O2       0.22650    0.22650    0.66180   1.00
C1       0.25000    0.25000    0.85520   1.00
C1       0.25000    0.35520    0.75000   1.00
C1       0.14480    0.25000    0.75000   1.00
C1       0.35520    0.25000    0.75000   1.00
C1       0.25000    0.14480    0.75000   1.00
C1       0.25000    0.25000    0.64480   1.00
O1       0.25000    0.75000    0.25000   1.00
Zn1      0.21720    0.78280    0.28280   1.00
Zn1      0.28280    0.71720    0.28280   1.00
Zn1      0.28280    0.78280    0.21720   1.00
Zn1      0.21720    0.71720    0.21720   1.00
O2       0.22650    0.77350    0.33820   1.00
O2       0.22650    0.83820    0.27350   1.00
O2       0.16180    0.77350    0.27350   1.00
O2       0.27350    0.72650    0.33820   1.00
O2       0.33820    0.72650    0.27350   1.00
O2       0.27350    0.66180    0.27350   1.00
O2       0.27350    0.83820    0.22650   1.00
O2       0.33820    0.77350    0.22650   1.00
O2       0.27350    0.77350    0.16180   1.00
O2       0.16180    0.72650    0.22650   1.00
O2       0.22650    0.66180    0.22650   1.00
O2       0.22650    0.72650    0.16180   1.00
C1       0.25000    0.75000    0.35520   1.00
C1       0.25000    0.85520    0.25000   1.00
C1       0.14480    0.75000    0.25000   1.00
C1       0.35520    0.75000    0.25000   1.00
C1       0.25000    0.64480    0.25000   1.00
C1       0.25000    0.75000    0.14480   1.00
O1       0.75000    0.25000    0.25000   1.00
Zn1      0.71720    0.28280    0.28280   1.00
Zn1      0.78280    0.21720    0.28280   1.00
Zn1      0.78280    0.28280    0.21720   1.00
Zn1      0.71720    0.21720    0.21720   1.00
O2       0.72650    0.27350    0.33820   1.00
O2       0.72650    0.33820    0.27350   1.00
O2       0.66180    0.27350    0.27350   1.00
O2       0.77350    0.22650    0.33820   1.00
O2       0.83820    0.22650    0.27350   1.00
O2       0.77350    0.16180    0.27350   1.00
O2       0.77350    0.33820    0.22650   1.00
O2       0.83820    0.27350    0.22650   1.00
O2       0.77350    0.27350    0.16180   1.00
O2       0.66180    0.22650    0.22650   1.00
O2       0.72650    0.16180    0.22650   1.00
O2       0.72650    0.22650    0.16180   1.00
C1       0.75000    0.25000    0.35520   1.00
C1       0.75000    0.35520    0.25000   1.00
C1       0.64480    0.25000    0.25000   1.00
C1       0.85520    0.25000    0.25000   1.00
C1       0.75000    0.14480    0.25000   1.00
C1       0.75000    0.25000    0.14480   1.00
O1       0.25000    0.25000    0.25000   1.00
Zn1      0.28280    0.21720    0.21720   1.00
Zn1      0.21720    0.28280    0.21720   1.00
Zn1      0.21720    0.21720    0.28280   1.00
Zn1      0.28280    0.28280    0.28280   1.00
O2       0.27350    0.22650    0.16180   1.00
O2       0.27350    0.16180    0.22650   1.00
O2       0.33820    0.22650    0.22650   1.00
O2       0.22650    0.27350    0.16180   1.00
O2       0.16180    0.27350    0.22650   1.00
O2       0.22650    0.33820    0.22650   1.00
O2       0.22650    0.16180    0.27350   1.00
O2       0.16180    0.22650    0.27350   1.00
O2       0.22650    0.22650    0.33820   1.00
O2       0.33820    0.27350    0.27350   1.00
O2       0.27350    0.33820    0.27350   1.00
O2       0.27350    0.27350    0.33820   1.00
C1       0.25000    0.25000    0.14480   1.00
C1       0.25000    0.14480    0.25000   1.00
C1       0.35520    0.25000    0.25000   1.00
C1       0.14480    0.25000    0.25000   1.00
C1       0.25000    0.35520    0.25000   1.00
C1       0.25000    0.25000    0.35520   1.00
O1       0.75000    0.75000    0.25000   1.00
Zn1      0.78280    0.71720    0.21720   1.00
Zn1      0.71720    0.78280    0.21720   1.00
Zn1      0.71720    0.71720    0.28280   1.00
Zn1      0.78280    0.78280    0.28280   1.00
O2       0.77350    0.72650    0.16180   1.00
O2       0.77350    0.66180    0.22650   1.00
O2       0.83820    0.72650    0.22650   1.00
O2       0.72650    0.77350    0.16180   1.00
O2       0.66180    0.77350    0.22650   1.00
O2       0.72650    0.83820    0.22650   1.00
O2       0.72650    0.66180    0.27350   1.00
O2       0.66180    0.72650    0.27350   1.00
O2       0.72650    0.72650    0.33820   1.00
O2       0.83820    0.77350    0.27350   1.00
O2       0.77350    0.83820    0.27350   1.00
O2       0.77350    0.77350    0.33820   1.00
C1       0.75000    0.75000    0.14480   1.00
C1       0.75000    0.64480    0.25000   1.00
C1       0.85520    0.75000    0.25000   1.00
C1       0.64480    0.75000    0.25000   1.00
C1       0.75000    0.85520    0.25000   1.00
C1       0.75000    0.75000    0.35520   1.00
O1       0.75000    0.25000    0.75000   1.00
Zn1      0.78280    0.21720    0.71720   1.00
Zn1      0.71720    0.28280    0.71720   1.00
Zn1      0.71720    0.21720    0.78280   1.00
Zn1      0.78280    0.28280    0.78280   1.00
O2       0.77350    0.22650    0.66180   1.00
O2       0.77350    0.16180    0.72650   1.00
O2       0.83820    0.22650    0.72650   1.00
O2       0.72650    0.27350    0.66180   1.00
O2       0.66180    0.27350    0.72650   1.00
O2       0.72650    0.33820    0.72650   1.00
O2       0.72650    0.16180    0.77350   1.00
O2       0.66180    0.22650    0.77350   1.00
O2       0.72650    0.22650    0.83820   1.00
O2       0.83820    0.27350    0.77350   1.00
O2       0.77350    0.33820    0.77350   1.00
O2       0.77350    0.27350    0.83820   1.00
C1       0.75000    0.25000    0.64480   1.00
C1       0.75000    0.14480    0.75000   1.00
C1       0.85520    0.25000    0.75000   1.00
C1       0.64480    0.25000    0.75000   1.00
C1       0.75000    0.35520    0.75000   1.00
C1       0.75000    0.25000    0.85520   1.00
O1       0.25000    0.75000    0.75000   1.00
Zn1      0.28280    0.71720    0.71720   1.00
Zn1      0.21720    0.78280    0.71720   1.00
Zn1      0.21720    0.71720    0.78280   1.00
Zn1      0.28280    0.78280    0.78280   1.00
O2       0.27350    0.72650    0.66180   1.00
O2       0.27350    0.66180    0.72650   1.00
O2       0.33820    0.72650    0.72650   1.00
O2       0.22650    0.77350    0.66180   1.00
O2       0.16180    0.77350    0.72650   1.00
O2       0.22650    0.83820    0.72650   1.00
O2       0.22650    0.66180    0.77350   1.00
O2       0.16180    0.72650    0.77350   1.00
O2       0.22650    0.72650    0.83820   1.00
O2       0.33820    0.77350    0.77350   1.00
O2       0.27350    0.83820    0.77350   1.00
O2       0.27350    0.77350    0.83820   1.00
C1       0.25000    0.75000    0.64480   1.00
C1       0.25000    0.64480    0.75000   1.00
C1       0.35520    0.75000    0.75000   1.00
C1       0.14480    0.75000    0.75000   1.00
C1       0.25000    0.85520    0.75000   1.00
C1       0.25000    0.75000    0.85520   1.00
C5       0.82740    0.64930    1.13227   1.00
H2       0.84266    0.67346    1.14755   1.00
H2       0.84876    0.63739    1.11099   1.00
C5       0.81563    0.61759    1.16219   1.00
H2       0.84079    0.59815    1.16890   1.00
H2       0.79124    0.59967    1.15040   1.00
O_3      0.70210    0.69793    0.98000   1.00
C4       0.75019    0.75040    1.02100   1.00
C3c      0.77632    0.72723    1.04243   1.00
H1       0.79708    0.70897    1.02725   1.00
C3d      0.72375    0.77441    1.04135   1.00
C3       0.77578    0.72677    1.08354   1.00
O2       0.80524    0.70712    1.10248   1.00
C3       0.72263    0.77346    1.08227   1.00
H1       0.70092    0.79132    1.09657   1.00
C2       0.74857    0.74987    1.10439   1.00
C5       0.66275    0.71008    0.97879   1.00
H2       0.65132    0.71175    0.94838   1.00
H2       0.65907    0.73932    0.99266   1.00
C5       0.63879    0.68027    1.00122   1.00
H2       0.65090    0.67780    1.03129   1.00
H2       0.64238    0.65128    0.98691   1.00
C5       0.59563    0.69202    1.00254   1.00
H2       0.58342    0.69482    0.97260   1.00
H2       0.59187    0.72032    1.01803   1.00
H2       0.57845    0.66946    1.01830   1.00
C5       0.71075    0.83223    1.01105   1.00
C5       0.79330    0.66849    1.11070   1.00
H2       0.73598    0.82911    0.99088   1.00
H2       0.72027    0.84925    1.03712   1.00
H2       0.78706    0.65255    1.08300   1.00
H2       0.76625    0.66738    1.12895   1.00
H2       0.80649    0.63089    1.19055   1.00
H2       0.71251    0.88125    0.94250   1.00
H2       0.71217    0.90908    0.98766   1.00
C2       0.74744    0.74976    0.89605   1.00
C3       0.77331    0.77489    0.91597   1.00
O2       0.79052    0.80578    0.89674   1.00
C3       0.72423    0.72382    0.91826   1.00
H1       0.70488    0.70352    0.90385   1.00
C3a      0.77467    0.77429    0.95713   1.00
H1       0.79298    0.79524    0.97202   1.00
C3b      0.72475    0.72417    0.95922   1.00
C4       0.75003    0.74958    0.97900   1.00
O_3      0.69548    0.79550    1.02167   1.00
C5       0.82952    0.79668    0.88720   1.00
H2       0.84701    0.79014    0.91391   1.00
C5       0.84666    0.83245    0.86666   1.00
H2       0.83095    0.77102    0.86726   1.00
H2       0.85488    0.85433    0.88923   1.00
H2       0.82289    0.84585    0.84899   1.00
C5       0.88204    0.82250    0.84069   1.00
H2       0.90415    0.80641    0.85811   1.00
H2       0.89566    0.84955    0.82891   1.00
H2       0.87322    0.80450    0.81494   1.00
C5       0.67852    0.85459    0.99020   1.00
H2       0.65631    0.86354    1.01218   1.00
H2       0.66375    0.83428    0.96955   1.00
C5       0.69440    0.89029    0.96803   1.00
H2       0.66980    0.90809    0.95666   1.00
C5       0.64930    1.13227    0.82740   1.00
H2       0.67346    1.14755    0.84266   1.00
H2       0.63739    1.11099    0.84876   1.00
C5       0.61759    1.16219    0.81563   1.00
H2       0.59815    1.16890    0.84079   1.00
H2       0.59967    1.15040    0.79124   1.00
O_3      0.69793    0.98000    0.70210   1.00
C4       0.75040    1.02100    0.75019   1.00
C3c      0.72723    1.04243    0.77632   1.00
H1       0.70897    1.02725    0.79708   1.00
C3d      0.77441    1.04135    0.72375   1.00
C3       0.72677    1.08354    0.77578   1.00
O2       0.70712    1.10248    0.80524   1.00
C3       0.77346    1.08227    0.72263   1.00
H1       0.79132    1.09657    0.70092   1.00
C2       0.74987    1.10439    0.74857   1.00
C5       0.71008    0.97879    0.66275   1.00
H2       0.71175    0.94838    0.65132   1.00
H2       0.73932    0.99266    0.65907   1.00
C5       0.68027    1.00122    0.63879   1.00
H2       0.67780    1.03129    0.65090   1.00
H2       0.65128    0.98691    0.64238   1.00
C5       0.69202    1.00254    0.59563   1.00
H2       0.69482    0.97260    0.58342   1.00
H2       0.72032    1.01803    0.59187   1.00
H2       0.66946    1.01830    0.57845   1.00
C5       0.83223    1.01105    0.71075   1.00
C5       0.66849    1.11070    0.79330   1.00
H2       0.82911    0.99088    0.73598   1.00
H2       0.84925    1.03712    0.72027   1.00
H2       0.65255    1.08300    0.78706   1.00
H2       0.66738    1.12895    0.76625   1.00
H2       0.63089    1.19055    0.80649   1.00
H2       0.88125    0.94250    0.71251   1.00
H2       0.90908    0.98766    0.71217   1.00
C2       0.74976    0.89605    0.74744   1.00
C3       0.77489    0.91597    0.77331   1.00
O2       0.80578    0.89674    0.79052   1.00
C3       0.72382    0.91826    0.72423   1.00
H1       0.70352    0.90385    0.70488   1.00
C3a      0.77429    0.95713    0.77467   1.00
H1       0.79524    0.97202    0.79298   1.00
C3b      0.72417    0.95922    0.72475   1.00
C4       0.74958    0.97900    0.75003   1.00
O_3      0.79550    1.02167    0.69548   1.00
C5       0.79668    0.88720    0.82952   1.00
H2       0.79014    0.91391    0.84701   1.00
C5       0.83245    0.86666    0.84666   1.00
H2       0.77102    0.86726    0.83095   1.00
H2       0.85433    0.88923    0.85488   1.00
H2       0.84585    0.84899    0.82289   1.00
C5       0.82250    0.84069    0.88204   1.00
H2       0.80641    0.85811    0.90415   1.00
H2       0.84955    0.82891    0.89566   1.00
H2       0.80450    0.81494    0.87322   1.00
C5       0.85459    0.99020    0.67852   1.00
H2       0.86354    1.01218    0.65631   1.00
H2       0.83428    0.96955    0.66375   1.00
C5       0.89029    0.96803    0.69440   1.00
H2       0.90809    0.95666    0.66980   1.00
C5       0.36773    0.82740    0.85070   1.00
H2       0.35245    0.84266    0.82654   1.00
H2       0.38901    0.84876    0.86261   1.00
C5       0.33781    0.81563    0.88241   1.00
H2       0.33110    0.84079    0.90185   1.00
H2       0.34960    0.79124    0.90033   1.00
O_3      0.52000    0.70210    0.80207   1.00
C4       0.47900    0.75019    0.74960   1.00
C3c      0.45757    0.77632    0.77277   1.00
H1       0.47275    0.79708    0.79103   1.00
C3d      0.45865    0.72375    0.72559   1.00
C3       0.41646    0.77578    0.77323   1.00
O2       0.39752    0.80524    0.79288   1.00
C3       0.41773    0.72263    0.72654   1.00
H1       0.40343    0.70092    0.70868   1.00
C2       0.39561    0.74857    0.75013   1.00
C5       0.52121    0.66275    0.78992   1.00
H2       0.55162    0.65132    0.78825   1.00
H2       0.50734    0.65907    0.76068   1.00
C5       0.49878    0.63879    0.81973   1.00
H2       0.46871    0.65090    0.82220   1.00
H2       0.51309    0.64238    0.84872   1.00
C5       0.49746    0.59563    0.80798   1.00
H2       0.52740    0.58342    0.80518   1.00
H2       0.48197    0.59187    0.77968   1.00
H2       0.48170    0.57845    0.83054   1.00
C5       0.48895    0.71075    0.66777   1.00
C5       0.38930    0.79330    0.83151   1.00
H2       0.50912    0.73598    0.67089   1.00
H2       0.46288    0.72027    0.65075   1.00
H2       0.41700    0.78706    0.84745   1.00
H2       0.37105    0.76625    0.83262   1.00
H2       0.30945    0.80649    0.86911   1.00
H2       0.55750    0.71251    0.61875   1.00
H2       0.51234    0.71217    0.59092   1.00
C2       0.60395    0.74744    0.75024   1.00
C3       0.58403    0.77331    0.72511   1.00
O2       0.60326    0.79052    0.69422   1.00
C3       0.58174    0.72423    0.77618   1.00
H1       0.59615    0.70488    0.79648   1.00
C3a      0.54287    0.77467    0.72571   1.00
H1       0.52798    0.79298    0.70476   1.00
C3b      0.54078    0.72475    0.77583   1.00
C4       0.52100    0.75003    0.75042   1.00
O_3      0.47833    0.69548    0.70450   1.00
C5       0.61280    0.82952    0.70332   1.00
H2       0.58609    0.84701    0.70986   1.00
C5       0.63334    0.84666    0.66755   1.00
H2       0.63274    0.83095    0.72898   1.00
H2       0.61077    0.85488    0.64567   1.00
H2       0.65101    0.82289    0.65415   1.00
C5       0.65931    0.88204    0.67750   1.00
H2       0.64189    0.90415    0.69359   1.00
H2       0.67109    0.89566    0.65045   1.00
H2       0.68506    0.87322    0.69550   1.00
C5       0.50980    0.67852    0.64541   1.00
H2       0.48782    0.65631    0.63646   1.00
H2       0.53045    0.66375    0.66572   1.00
C5       0.53197    0.69440    0.60971   1.00
H2       0.54334    0.66980    0.59191   1.00
C5       1.13227    0.82740    0.64930   1.00
H2       1.14755    0.84266    0.67346   1.00
H2       1.11099    0.84876    0.63739   1.00
C5       1.16219    0.81563    0.61759   1.00
H2       1.16890    0.84079    0.59815   1.00
H2       1.15040    0.79124    0.59967   1.00
O_3      0.98000    0.70210    0.69793   1.00
C4       1.02100    0.75019    0.75040   1.00
C3c      1.04243    0.77632    0.72723   1.00
H1       1.02725    0.79708    0.70897   1.00
C3d      1.04135    0.72375    0.77441   1.00
C3       1.08354    0.77578    0.72677   1.00
O2       1.10248    0.80524    0.70712   1.00
C3       1.08227    0.72263    0.77346   1.00
H1       1.09657    0.70092    0.79132   1.00
C2       1.10439    0.74857    0.74987   1.00
C5       0.97879    0.66275    0.71008   1.00
H2       0.94838    0.65132    0.71175   1.00
H2       0.99266    0.65907    0.73932   1.00
C5       1.00122    0.63879    0.68027   1.00
H2       1.03129    0.65090    0.67780   1.00
H2       0.98691    0.64238    0.65128   1.00
C5       1.00254    0.59563    0.69202   1.00
H2       0.97260    0.58342    0.69482   1.00
H2       1.01803    0.59187    0.72032   1.00
H2       1.01830    0.57845    0.66946   1.00
C5       1.01105    0.71075    0.83223   1.00
C5       1.11070    0.79330    0.66849   1.00
H2       0.99088    0.73598    0.82911   1.00
H2       1.03712    0.72027    0.84925   1.00
H2       1.08300    0.78706    0.65255   1.00
H2       1.12895    0.76625    0.66738   1.00
H2       1.19055    0.80649    0.63089   1.00
H2       0.94250    0.71251    0.88125   1.00
H2       0.98766    0.71217    0.90908   1.00
C2       0.89605    0.74744    0.74976   1.00
C3       0.91597    0.77331    0.77489   1.00
O2       0.89674    0.79052    0.80578   1.00
C3       0.91826    0.72423    0.72382   1.00
H1       0.90385    0.70488    0.70352   1.00
C3a      0.95713    0.77467    0.77429   1.00
H1       0.97202    0.79298    0.79524   1.00
C3b      0.95922    0.72475    0.72417   1.00
C4       0.97900    0.75003    0.74958   1.00
O_3      1.02167    0.69548    0.79550   1.00
C5       0.88720    0.82952    0.79668   1.00
H2       0.91391    0.84701    0.79014   1.00
C5       0.86666    0.84666    0.83245   1.00
H2       0.86726    0.83095    0.77102   1.00
H2       0.88923    0.85488    0.85433   1.00
H2       0.84899    0.82289    0.84585   1.00
C5       0.84069    0.88204    0.82250   1.00
H2       0.85811    0.90415    0.80641   1.00
H2       0.82891    0.89566    0.84955   1.00
H2       0.81494    0.87322    0.80450   1.00
C5       0.99020    0.67852    0.85459   1.00
H2       1.01218    0.65631    0.86354   1.00
H2       0.96955    0.66375    0.83428   1.00
C5       0.96803    0.69440    0.89029   1.00
H2       0.95666    0.66980    0.90809   1.00
C5       0.85070    0.36773    0.82740   1.00
H2       0.82654    0.35245    0.84266   1.00
H2       0.86261    0.38901    0.84876   1.00
C5       0.88241    0.33781    0.81563   1.00
H2       0.90185    0.33110    0.84079   1.00
H2       0.90033    0.34960    0.79124   1.00
O_3      0.80207    0.52000    0.70210   1.00
C4       0.74960    0.47900    0.75019   1.00
C3c      0.77277    0.45757    0.77632   1.00
H1       0.79103    0.47275    0.79708   1.00
C3d      0.72559    0.45865    0.72375   1.00
C3       0.77323    0.41646    0.77578   1.00
O2       0.79288    0.39752    0.80524   1.00
C3       0.72654    0.41773    0.72263   1.00
H1       0.70868    0.40343    0.70092   1.00
C2       0.75013    0.39561    0.74857   1.00
C5       0.78992    0.52121    0.66275   1.00
H2       0.78825    0.55162    0.65132   1.00
H2       0.76068    0.50734    0.65907   1.00
C5       0.81973    0.49878    0.63879   1.00
H2       0.82220    0.46871    0.65090   1.00
H2       0.84872    0.51309    0.64238   1.00
C5       0.80798    0.49746    0.59563   1.00
H2       0.80518    0.52740    0.58342   1.00
H2       0.77968    0.48197    0.59187   1.00
H2       0.83054    0.48170    0.57845   1.00
C5       0.66777    0.48895    0.71075   1.00
C5       0.83151    0.38930    0.79330   1.00
H2       0.67089    0.50912    0.73598   1.00
H2       0.65075    0.46288    0.72027   1.00
H2       0.84745    0.41700    0.78706   1.00
H2       0.83262    0.37105    0.76625   1.00
H2       0.86911    0.30945    0.80649   1.00
H2       0.61875    0.55750    0.71251   1.00
H2       0.59092    0.51234    0.71217   1.00
C2       0.75024    0.60395    0.74744   1.00
C3       0.72511    0.58403    0.77331   1.00
O2       0.69422    0.60326    0.79052   1.00
C3       0.77618    0.58174    0.72423   1.00
H1       0.79648    0.59615    0.70488   1.00
C3a      0.72571    0.54287    0.77467   1.00
H1       0.70476    0.52798    0.79298   1.00
C3b      0.77583    0.54078    0.72475   1.00
C4       0.75042    0.52100    0.75003   1.00
O_3      0.70450    0.47833    0.69548   1.00
C5       0.70332    0.61280    0.82952   1.00
H2       0.70986    0.58609    0.84701   1.00
C5       0.66755    0.63334    0.84666   1.00
H2       0.72898    0.63274    0.83095   1.00
H2       0.64567    0.61077    0.85488   1.00
H2       0.65415    0.65101    0.82289   1.00
C5       0.67750    0.65931    0.88204   1.00
H2       0.69359    0.64189    0.90415   1.00
H2       0.65045    0.67109    0.89566   1.00
H2       0.69550    0.68506    0.87322   1.00
C5       0.64541    0.50980    0.67852   1.00
H2       0.63646    0.48782    0.65631   1.00
H2       0.66572    0.53045    0.66375   1.00
C5       0.60971    0.53197    0.69440   1.00
H2       0.59191    0.54334    0.66980   1.00
C5       0.82740    0.85070    0.36773   1.00
H2       0.84266    0.82654    0.35245   1.00
H2       0.84876    0.86261    0.38901   1.00
C5       0.81563    0.88241    0.33781   1.00
H2       0.84079    0.90185    0.33110   1.00
H2       0.79124    0.90033    0.34960   1.00
O_3      0.70210    0.80207    0.52000   1.00
C4       0.75019    0.74960    0.47900   1.00
C3c      0.77632    0.77277    0.45757   1.00
H1       0.79708    0.79103    0.47275   1.00
C3d      0.72375    0.72559    0.45865   1.00
C3       0.77578    0.77323    0.41646   1.00
O2       0.80524    0.79288    0.39752   1.00
C3       0.72263    0.72654    0.41773   1.00
H1       0.70092    0.70868    0.40343   1.00
C2       0.74857    0.75013    0.39561   1.00
C5       0.66275    0.78992    0.52121   1.00
H2       0.65132    0.78825    0.55162   1.00
H2       0.65907    0.76068    0.50734   1.00
C5       0.63879    0.81973    0.49878   1.00
H2       0.65090    0.82220    0.46871   1.00
H2       0.64238    0.84872    0.51309   1.00
C5       0.59563    0.80798    0.49746   1.00
H2       0.58342    0.80518    0.52740   1.00
H2       0.59187    0.77968    0.48197   1.00
H2       0.57845    0.83054    0.48170   1.00
C5       0.71075    0.66777    0.48895   1.00
C5       0.79330    0.83151    0.38930   1.00
H2       0.73598    0.67089    0.50912   1.00
H2       0.72027    0.65075    0.46288   1.00
H2       0.78706    0.84745    0.41700   1.00
H2       0.76625    0.83262    0.37105   1.00
H2       0.80649    0.86911    0.30945   1.00
H2       0.71251    0.61875    0.55750   1.00
H2       0.71217    0.59092    0.51234   1.00
C2       0.74744    0.75024    0.60395   1.00
C3       0.77331    0.72511    0.58403   1.00
O2       0.79052    0.69422    0.60326   1.00
C3       0.72423    0.77618    0.58174   1.00
H1       0.70488    0.79648    0.59615   1.00
C3a      0.77467    0.72571    0.54287   1.00
H1       0.79298    0.70476    0.52798   1.00
C3b      0.72475    0.77583    0.54078   1.00
C4       0.75003    0.75042    0.52100   1.00
O_3      0.69548    0.70450    0.47833   1.00
C5       0.82952    0.70332    0.61280   1.00
H2       0.84701    0.70986    0.58609   1.00
C5       0.84666    0.66755    0.63334   1.00
H2       0.83095    0.72898    0.63274   1.00
H2       0.85488    0.64567    0.61077   1.00
H2       0.82289    0.65415    0.65101   1.00
C5       0.88204    0.67750    0.65931   1.00
H2       0.90415    0.69359    0.64189   1.00
H2       0.89566    0.65045    0.67109   1.00
H2       0.87322    0.69550    0.68506   1.00
C5       0.67852    0.64541    0.50980   1.00
H2       0.65631    0.63646    0.48782   1.00
H2       0.66375    0.66572    0.53045   1.00
C5       0.69440    0.60971    0.53197   1.00
H2       0.66980    0.59191    0.54334   1.00
C5       0.32740    0.14930    1.13227   1.00
H2       0.34266    0.17346    1.14755   1.00
H2       0.34876    0.13739    1.11099   1.00
C5       0.31563    0.11759    1.16219   1.00
H2       0.34079    0.09815    1.16890   1.00
H2       0.29124    0.09967    1.15040   1.00
O_3      0.20210    0.19793    0.98000   1.00
C4       0.25019    0.25040    1.02100   1.00
C3c      0.27632    0.22723    1.04243   1.00
H1       0.29708    0.20897    1.02725   1.00
C3d      0.22375    0.27441    1.04135   1.00
C3       0.27578    0.22677    1.08354   1.00
O2       0.30524    0.20712    1.10248   1.00
C3       0.22263    0.27346    1.08227   1.00
H1       0.20092    0.29132    1.09657   1.00
C2       0.24857    0.24987    1.10439   1.00
C5       0.16275    0.21008    0.97879   1.00
H2       0.15132    0.21175    0.94838   1.00
H2       0.15907    0.23932    0.99266   1.00
C5       0.13879    0.18027    1.00122   1.00
H2       0.15090    0.17780    1.03129   1.00
H2       0.14238    0.15128    0.98691   1.00
C5       0.09563    0.19202    1.00254   1.00
H2       0.08342    0.19482    0.97260   1.00
H2       0.09187    0.22032    1.01803   1.00
H2       0.07845    0.16946    1.01830   1.00
C5       0.21075    0.33223    1.01105   1.00
C5       0.29330    0.16849    1.11070   1.00
H2       0.23598    0.32911    0.99088   1.00
H2       0.22027    0.34925    1.03712   1.00
H2       0.28706    0.15255    1.08300   1.00
H2       0.26625    0.16738    1.12895   1.00
H2       0.30649    0.13089    1.19055   1.00
H2       0.21251    0.38125    0.94250   1.00
H2       0.21217    0.40908    0.98766   1.00
C2       0.24744    0.24976    0.89605   1.00
C3       0.27331    0.27489    0.91597   1.00
O2       0.29052    0.30578    0.89674   1.00
C3       0.22423    0.22382    0.91826   1.00
H1       0.20488    0.20352    0.90385   1.00
C3a      0.27467    0.27429    0.95713   1.00
H1       0.29298    0.29524    0.97202   1.00
C3b      0.22475    0.22417    0.95922   1.00
C4       0.25003    0.24958    0.97900   1.00
O_3      0.19548    0.29550    1.02167   1.00
C5       0.32952    0.29668    0.88720   1.00
H2       0.34701    0.29014    0.91391   1.00
C5       0.34666    0.33245    0.86666   1.00
H2       0.33095    0.27102    0.86726   1.00
H2       0.35488    0.35433    0.88923   1.00
H2       0.32289    0.34585    0.84899   1.00
C5       0.38204    0.32250    0.84069   1.00
H2       0.40415    0.30641    0.85811   1.00
H2       0.39566    0.34955    0.82891   1.00
H2       0.37322    0.30450    0.81494   1.00
C5       0.17852    0.35459    0.99020   1.00
H2       0.15631    0.36354    1.01218   1.00
H2       0.16375    0.33428    0.96955   1.00
C5       0.19440    0.39029    0.96803   1.00
H2       0.16980    0.40809    0.95666   1.00
C5       0.14930    0.63227    0.82740   1.00
H2       0.17346    0.64755    0.84266   1.00
H2       0.13739    0.61099    0.84876   1.00
C5       0.11759    0.66219    0.81563   1.00
H2       0.09815    0.66890    0.84079   1.00
H2       0.09967    0.65040    0.79124   1.00
O_3      0.19793    0.48000    0.70210   1.00
C4       0.25040    0.52100    0.75019   1.00
C3c      0.22723    0.54243    0.77632   1.00
H1       0.20897    0.52725    0.79708   1.00
C3d      0.27441    0.54135    0.72375   1.00
C3       0.22677    0.58354    0.77578   1.00
O2       0.20712    0.60248    0.80524   1.00
C3       0.27346    0.58227    0.72263   1.00
H1       0.29132    0.59657    0.70092   1.00
C2       0.24987    0.60439    0.74857   1.00
C5       0.21008    0.47879    0.66275   1.00
H2       0.21175    0.44838    0.65132   1.00
H2       0.23932    0.49266    0.65907   1.00
C5       0.18027    0.50122    0.63879   1.00
H2       0.17780    0.53129    0.65090   1.00
H2       0.15128    0.48691    0.64238   1.00
C5       0.19202    0.50254    0.59563   1.00
H2       0.19482    0.47260    0.58342   1.00
H2       0.22032    0.51803    0.59187   1.00
H2       0.16946    0.51830    0.57845   1.00
C5       0.33223    0.51105    0.71075   1.00
C5       0.16849    0.61070    0.79330   1.00
H2       0.32911    0.49088    0.73598   1.00
H2       0.34925    0.53712    0.72027   1.00
H2       0.15255    0.58300    0.78706   1.00
H2       0.16738    0.62895    0.76625   1.00
H2       0.13089    0.69055    0.80649   1.00
H2       0.38125    0.44250    0.71251   1.00
H2       0.40908    0.48766    0.71217   1.00
C2       0.24976    0.39605    0.74744   1.00
C3       0.27489    0.41597    0.77331   1.00
O2       0.30578    0.39674    0.79052   1.00
C3       0.22382    0.41826    0.72423   1.00
H1       0.20352    0.40385    0.70488   1.00
C3a      0.27429    0.45713    0.77467   1.00
H1       0.29524    0.47202    0.79298   1.00
C3b      0.22417    0.45922    0.72475   1.00
C4       0.24958    0.47900    0.75003   1.00
O_3      0.29550    0.52167    0.69548   1.00
C5       0.29668    0.38720    0.82952   1.00
H2       0.29014    0.41391    0.84701   1.00
C5       0.33245    0.36666    0.84666   1.00
H2       0.27102    0.36726    0.83095   1.00
H2       0.35433    0.38923    0.85488   1.00
H2       0.34585    0.34899    0.82289   1.00
C5       0.32250    0.34069    0.88204   1.00
H2       0.30641    0.35811    0.90415   1.00
H2       0.34955    0.32891    0.89566   1.00
H2       0.30450    0.31494    0.87322   1.00
C5       0.35459    0.49020    0.67852   1.00
H2       0.36354    0.51218    0.65631   1.00
H2       0.33428    0.46955    0.66375   1.00
C5       0.39029    0.46803    0.69440   1.00
H2       0.40809    0.45666    0.66980   1.00
C5       -0.13227   0.32740    0.85070   1.00
H2       -0.14755   0.34266    0.82654   1.00
H2       -0.11099   0.34876    0.86261   1.00
C5       -0.16219   0.31563    0.88241   1.00
H2       -0.16890   0.34079    0.90185   1.00
H2       -0.15040   0.29124    0.90033   1.00
O_3      0.02000    0.20210    0.80207   1.00
C4       -0.02100   0.25019    0.74960   1.00
C3c      -0.04243   0.27632    0.77277   1.00
H1       -0.02725   0.29708    0.79103   1.00
C3d      -0.04135   0.22375    0.72559   1.00
C3       -0.08354   0.27578    0.77323   1.00
O2       -0.10248   0.30524    0.79288   1.00
C3       -0.08227   0.22263    0.72654   1.00
H1       -0.09657   0.20092    0.70868   1.00
C2       -0.10439   0.24857    0.75013   1.00
C5       0.02121    0.16275    0.78992   1.00
H2       0.05162    0.15132    0.78825   1.00
H2       0.00734    0.15907    0.76068   1.00
C5       -0.00122   0.13879    0.81973   1.00
H2       -0.03129   0.15090    0.82220   1.00
H2       0.01309    0.14238    0.84872   1.00
C5       -0.00254   0.09563    0.80798   1.00
H2       0.02740    0.08342    0.80518   1.00
H2       -0.01803   0.09187    0.77968   1.00
H2       -0.01830   0.07845    0.83054   1.00
C5       -0.01105   0.21075    0.66777   1.00
C5       -0.11070   0.29330    0.83151   1.00
H2       0.00912    0.23598    0.67089   1.00
H2       -0.03712   0.22027    0.65075   1.00
H2       -0.08300   0.28706    0.84745   1.00
H2       -0.12895   0.26625    0.83262   1.00
H2       -0.19055   0.30649    0.86911   1.00
H2       0.05750    0.21251    0.61875   1.00
H2       0.01234    0.21217    0.59092   1.00
C2       0.10395    0.24744    0.75024   1.00
C3       0.08403    0.27331    0.72511   1.00
O2       0.10326    0.29052    0.69422   1.00
C3       0.08174    0.22423    0.77618   1.00
H1       0.09615    0.20488    0.79648   1.00
C3a      0.04287    0.27467    0.72571   1.00
H1       0.02798    0.29298    0.70476   1.00
C3b      0.04078    0.22475    0.77583   1.00
C4       0.02100    0.25003    0.75042   1.00
O_3      -0.02167   0.19548    0.70450   1.00
C5       0.11280    0.32952    0.70332   1.00
H2       0.08609    0.34701    0.70986   1.00
C5       0.13334    0.34666    0.66755   1.00
H2       0.13274    0.33095    0.72898   1.00
H2       0.11077    0.35488    0.64567   1.00
H2       0.15101    0.32289    0.65415   1.00
C5       0.15931    0.38204    0.67750   1.00
H2       0.14189    0.40415    0.69359   1.00
H2       0.17109    0.39566    0.65045   1.00
H2       0.18506    0.37322    0.69550   1.00
C5       0.00980    0.17852    0.64541   1.00
H2       -0.01218   0.15631    0.63646   1.00
H2       0.03045    0.16375    0.66572   1.00
C5       0.03197    0.19440    0.60971   1.00
H2       0.04334    0.16980    0.59191   1.00
C5       0.63227    0.32740    0.64930   1.00
H2       0.64755    0.34266    0.67346   1.00
H2       0.61099    0.34876    0.63739   1.00
C5       0.66219    0.31563    0.61759   1.00
H2       0.66890    0.34079    0.59815   1.00
H2       0.65040    0.29124    0.59967   1.00
O_3      0.48000    0.20210    0.69793   1.00
C4       0.52100    0.25019    0.75040   1.00
C3c      0.54243    0.27632    0.72723   1.00
H1       0.52725    0.29708    0.70897   1.00
C3d      0.54135    0.22375    0.77441   1.00
C3       0.58354    0.27578    0.72677   1.00
O2       0.60248    0.30524    0.70712   1.00
C3       0.58227    0.22263    0.77346   1.00
H1       0.59657    0.20092    0.79132   1.00
C2       0.60439    0.24857    0.74987   1.00
C5       0.47879    0.16275    0.71008   1.00
H2       0.44838    0.15132    0.71175   1.00
H2       0.49266    0.15907    0.73932   1.00
C5       0.50122    0.13879    0.68027   1.00
H2       0.53129    0.15090    0.67780   1.00
H2       0.48691    0.14238    0.65128   1.00
C5       0.50254    0.09563    0.69202   1.00
H2       0.47260    0.08342    0.69482   1.00
H2       0.51803    0.09187    0.72032   1.00
H2       0.51830    0.07845    0.66946   1.00
C5       0.51105    0.21075    0.83223   1.00
C5       0.61070    0.29330    0.66849   1.00
H2       0.49088    0.23598    0.82911   1.00
H2       0.53712    0.22027    0.84925   1.00
H2       0.58300    0.28706    0.65255   1.00
H2       0.62895    0.26625    0.66738   1.00
H2       0.69055    0.30649    0.63089   1.00
H2       0.44250    0.21251    0.88125   1.00
H2       0.48766    0.21217    0.90908   1.00
C2       0.39605    0.24744    0.74976   1.00
C3       0.41597    0.27331    0.77489   1.00
O2       0.39674    0.29052    0.80578   1.00
C3       0.41826    0.22423    0.72382   1.00
H1       0.40385    0.20488    0.70352   1.00
C3a      0.45713    0.27467    0.77429   1.00
H1       0.47202    0.29298    0.79524   1.00
C3b      0.45922    0.22475    0.72417   1.00
C4       0.47900    0.25003    0.74958   1.00
O_3      0.52167    0.19548    0.79550   1.00
C5       0.38720    0.32952    0.79668   1.00
H2       0.41391    0.34701    0.79014   1.00
C5       0.36666    0.34666    0.83245   1.00
H2       0.36726    0.33095    0.77102   1.00
H2       0.38923    0.35488    0.85433   1.00
H2       0.34899    0.32289    0.84585   1.00
C5       0.34069    0.38204    0.82250   1.00
H2       0.35811    0.40415    0.80641   1.00
H2       0.32891    0.39566    0.84955   1.00
H2       0.31494    0.37322    0.80450   1.00
C5       0.49020    0.17852    0.85459   1.00
H2       0.51218    0.15631    0.86354   1.00
H2       0.46955    0.16375    0.83428   1.00
C5       0.46803    0.19440    0.89029   1.00
H2       0.45666    0.16980    0.90809   1.00
C5       0.35070    -0.13227   0.82740   1.00
H2       0.32654    -0.14755   0.84266   1.00
H2       0.36261    -0.11099   0.84876   1.00
C5       0.38241    -0.16219   0.81563   1.00
H2       0.40185    -0.16890   0.84079   1.00
H2       0.40033    -0.15040   0.79124   1.00
O_3      0.30207    0.02000    0.70210   1.00
C4       0.24960    -0.02100   0.75019   1.00
C3c      0.27277    -0.04243   0.77632   1.00
H1       0.29103    -0.02725   0.79708   1.00
C3d      0.22559    -0.04135   0.72375   1.00
C3       0.27323    -0.08354   0.77578   1.00
O2       0.29288    -0.10248   0.80524   1.00
C3       0.22654    -0.08227   0.72263   1.00
H1       0.20868    -0.09657   0.70092   1.00
C2       0.25013    -0.10439   0.74857   1.00
C5       0.28992    0.02121    0.66275   1.00
H2       0.28825    0.05162    0.65132   1.00
H2       0.26068    0.00734    0.65907   1.00
C5       0.31973    -0.00122   0.63879   1.00
H2       0.32220    -0.03129   0.65090   1.00
H2       0.34872    0.01309    0.64238   1.00
C5       0.30798    -0.00254   0.59563   1.00
H2       0.30518    0.02740    0.58342   1.00
H2       0.27968    -0.01803   0.59187   1.00
H2       0.33054    -0.01830   0.57845   1.00
C5       0.16777    -0.01105   0.71075   1.00
C5       0.33151    -0.11070   0.79330   1.00
H2       0.17089    0.00912    0.73598   1.00
H2       0.15075    -0.03712   0.72027   1.00
H2       0.34745    -0.08300   0.78706   1.00
H2       0.33262    -0.12895   0.76625   1.00
H2       0.36911    -0.19055   0.80649   1.00
H2       0.11875    0.05750    0.71251   1.00
H2       0.09092    0.01234    0.71217   1.00
C2       0.25024    0.10395    0.74744   1.00
C3       0.22511    0.08403    0.77331   1.00
O2       0.19422    0.10326    0.79052   1.00
C3       0.27618    0.08174    0.72423   1.00
H1       0.29648    0.09615    0.70488   1.00
C3a      0.22571    0.04287    0.77467   1.00
H1       0.20476    0.02798    0.79298   1.00
C3b      0.27583    0.04078    0.72475   1.00
C4       0.25042    0.02100    0.75003   1.00
O_3      0.20450    -0.02167   0.69548   1.00
C5       0.20332    0.11280    0.82952   1.00
H2       0.20986    0.08609    0.84701   1.00
C5       0.16755    0.13334    0.84666   1.00
H2       0.22898    0.13274    0.83095   1.00
H2       0.14567    0.11077    0.85488   1.00
H2       0.15415    0.15101    0.82289   1.00
C5       0.17750    0.15931    0.88204   1.00
H2       0.19359    0.14189    0.90415   1.00
H2       0.15045    0.17109    0.89566   1.00
H2       0.19550    0.18506    0.87322   1.00
C5       0.14541    0.00980    0.67852   1.00
H2       0.13646    -0.01218   0.65631   1.00
H2       0.16572    0.03045    0.66375   1.00
C5       0.10971    0.03197    0.69440   1.00
H2       0.09191    0.04334    0.66980   1.00
C5       0.32740    0.35070    0.36773   1.00
H2       0.34266    0.32654    0.35245   1.00
H2       0.34876    0.36261    0.38901   1.00
C5       0.31563    0.38241    0.33781   1.00
H2       0.34079    0.40185    0.33110   1.00
H2       0.29124    0.40033    0.34960   1.00
O_3      0.20210    0.30207    0.52000   1.00
C4       0.25019    0.24960    0.47900   1.00
C3c      0.27632    0.27277    0.45757   1.00
H1       0.29708    0.29103    0.47275   1.00
C3d      0.22375    0.22559    0.45865   1.00
C3       0.27578    0.27323    0.41646   1.00
O2       0.30524    0.29288    0.39752   1.00
C3       0.22263    0.22654    0.41773   1.00
H1       0.20092    0.20868    0.40343   1.00
C2       0.24857    0.25013    0.39561   1.00
C5       0.16275    0.28992    0.52121   1.00
H2       0.15132    0.28825    0.55162   1.00
H2       0.15907    0.26068    0.50734   1.00
C5       0.13879    0.31973    0.49878   1.00
H2       0.15090    0.32220    0.46871   1.00
H2       0.14238    0.34872    0.51309   1.00
C5       0.09563    0.30798    0.49746   1.00
H2       0.08342    0.30518    0.52740   1.00
H2       0.09187    0.27968    0.48197   1.00
H2       0.07845    0.33054    0.48170   1.00
C5       0.21075    0.16777    0.48895   1.00
C5       0.29330    0.33151    0.38930   1.00
H2       0.23598    0.17089    0.50912   1.00
H2       0.22027    0.15075    0.46288   1.00
H2       0.28706    0.34745    0.41700   1.00
H2       0.26625    0.33262    0.37105   1.00
H2       0.30649    0.36911    0.30945   1.00
H2       0.21251    0.11875    0.55750   1.00
H2       0.21217    0.09092    0.51234   1.00
C2       0.24744    0.25024    0.60395   1.00
C3       0.27331    0.22511    0.58403   1.00
O2       0.29052    0.19422    0.60326   1.00
C3       0.22423    0.27618    0.58174   1.00
H1       0.20488    0.29648    0.59615   1.00
C3a      0.27467    0.22571    0.54287   1.00
H1       0.29298    0.20476    0.52798   1.00
C3b      0.22475    0.27583    0.54078   1.00
C4       0.25003    0.25042    0.52100   1.00
O_3      0.19548    0.20450    0.47833   1.00
C5       0.32952    0.20332    0.61280   1.00
H2       0.34701    0.20986    0.58609   1.00
C5       0.34666    0.16755    0.63334   1.00
H2       0.33095    0.22898    0.63274   1.00
H2       0.35488    0.14567    0.61077   1.00
H2       0.32289    0.15415    0.65101   1.00
C5       0.38204    0.17750    0.65931   1.00
H2       0.40415    0.19359    0.64189   1.00
H2       0.39566    0.15045    0.67109   1.00
H2       0.37322    0.19550    0.68506   1.00
C5       0.17852    0.14541    0.50980   1.00
H2       0.15631    0.13646    0.48782   1.00
H2       0.16375    0.16572    0.53045   1.00
C5       0.19440    0.10971    0.53197   1.00
H2       0.16980    0.09191    0.54334   1.00
C5       0.32740    0.64930    0.63227   1.00
H2       0.34266    0.67346    0.64755   1.00
H2       0.34876    0.63739    0.61099   1.00
C5       0.31563    0.61759    0.66219   1.00
H2       0.34079    0.59815    0.66890   1.00
H2       0.29124    0.59967    0.65040   1.00
O_3      0.20210    0.69793    0.48000   1.00
C4       0.25019    0.75040    0.52100   1.00
C3c      0.27632    0.72723    0.54243   1.00
H1       0.29708    0.70897    0.52725   1.00
C3d      0.22375    0.77441    0.54135   1.00
C3       0.27578    0.72677    0.58354   1.00
O2       0.30524    0.70712    0.60248   1.00
C3       0.22263    0.77346    0.58227   1.00
H1       0.20092    0.79132    0.59657   1.00
C2       0.24857    0.74987    0.60439   1.00
C5       0.16275    0.71008    0.47879   1.00
H2       0.15132    0.71175    0.44838   1.00
H2       0.15907    0.73932    0.49266   1.00
C5       0.13879    0.68027    0.50122   1.00
H2       0.15090    0.67780    0.53129   1.00
H2       0.14238    0.65128    0.48691   1.00
C5       0.09563    0.69202    0.50254   1.00
H2       0.08342    0.69482    0.47260   1.00
H2       0.09187    0.72032    0.51803   1.00
H2       0.07845    0.66946    0.51830   1.00
C5       0.21075    0.83223    0.51105   1.00
C5       0.29330    0.66849    0.61070   1.00
H2       0.23598    0.82911    0.49088   1.00
H2       0.22027    0.84925    0.53712   1.00
H2       0.28706    0.65255    0.58300   1.00
H2       0.26625    0.66738    0.62895   1.00
H2       0.30649    0.63089    0.69055   1.00
H2       0.21251    0.88125    0.44250   1.00
H2       0.21217    0.90908    0.48766   1.00
C2       0.24744    0.74976    0.39605   1.00
C3       0.27331    0.77489    0.41597   1.00
O2       0.29052    0.80578    0.39674   1.00
C3       0.22423    0.72382    0.41826   1.00
H1       0.20488    0.70352    0.40385   1.00
C3a      0.27467    0.77429    0.45713   1.00
H1       0.29298    0.79524    0.47202   1.00
C3b      0.22475    0.72417    0.45922   1.00
C4       0.25003    0.74958    0.47900   1.00
O_3      0.19548    0.79550    0.52167   1.00
C5       0.32952    0.79668    0.38720   1.00
H2       0.34701    0.79014    0.41391   1.00
C5       0.34666    0.83245    0.36666   1.00
H2       0.33095    0.77102    0.36726   1.00
H2       0.35488    0.85433    0.38923   1.00
H2       0.32289    0.84585    0.34899   1.00
C5       0.38204    0.82250    0.34069   1.00
H2       0.40415    0.80641    0.35811   1.00
H2       0.39566    0.84955    0.32891   1.00
H2       0.37322    0.80450    0.31494   1.00
C5       0.17852    0.85459    0.49020   1.00
H2       0.15631    0.86354    0.51218   1.00
H2       0.16375    0.83428    0.46955   1.00
C5       0.19440    0.89029    0.46803   1.00
H2       0.16980    0.90809    0.45666   1.00
C5       0.14930    1.13227    0.32740   1.00
H2       0.17346    1.14755    0.34266   1.00
H2       0.13739    1.11099    0.34876   1.00
C5       0.11759    1.16219    0.31563   1.00
H2       0.09815    1.16890    0.34079   1.00
H2       0.09967    1.15040    0.29124   1.00
O_3      0.19793    0.98000    0.20210   1.00
C4       0.25040    1.02100    0.25019   1.00
C3c      0.22723    1.04243    0.27632   1.00
H1       0.20897    1.02725    0.29708   1.00
C3d      0.27441    1.04135    0.22375   1.00
C3       0.22677    1.08354    0.27578   1.00
O2       0.20712    1.10248    0.30524   1.00
C3       0.27346    1.08227    0.22263   1.00
H1       0.29132    1.09657    0.20092   1.00
C2       0.24987    1.10439    0.24857   1.00
C5       0.21008    0.97879    0.16275   1.00
H2       0.21175    0.94838    0.15132   1.00
H2       0.23932    0.99266    0.15907   1.00
C5       0.18027    1.00122    0.13879   1.00
H2       0.17780    1.03129    0.15090   1.00
H2       0.15128    0.98691    0.14238   1.00
C5       0.19202    1.00254    0.09563   1.00
H2       0.19482    0.97260    0.08342   1.00
H2       0.22032    1.01803    0.09187   1.00
H2       0.16946    1.01830    0.07845   1.00
C5       0.33223    1.01105    0.21075   1.00
C5       0.16849    1.11070    0.29330   1.00
H2       0.32911    0.99088    0.23598   1.00
H2       0.34925    1.03712    0.22027   1.00
H2       0.15255    1.08300    0.28706   1.00
H2       0.16738    1.12895    0.26625   1.00
H2       0.13089    1.19055    0.30649   1.00
H2       0.38125    0.94250    0.21251   1.00
H2       0.40908    0.98766    0.21217   1.00
C2       0.24976    0.89605    0.24744   1.00
C3       0.27489    0.91597    0.27331   1.00
O2       0.30578    0.89674    0.29052   1.00
C3       0.22382    0.91826    0.22423   1.00
H1       0.20352    0.90385    0.20488   1.00
C3a      0.27429    0.95713    0.27467   1.00
H1       0.29524    0.97202    0.29298   1.00
C3b      0.22417    0.95922    0.22475   1.00
C4       0.24958    0.97900    0.25003   1.00
O_3      0.29550    1.02167    0.19548   1.00
C5       0.29668    0.88720    0.32952   1.00
H2       0.29014    0.91391    0.34701   1.00
C5       0.33245    0.86666    0.34666   1.00
H2       0.27102    0.86726    0.33095   1.00
H2       0.35433    0.88923    0.35488   1.00
H2       0.34585    0.84899    0.32289   1.00
C5       0.32250    0.84069    0.38204   1.00
H2       0.30641    0.85811    0.40415   1.00
H2       0.34955    0.82891    0.39566   1.00
H2       0.30450    0.81494    0.37322   1.00
C5       0.35459    0.99020    0.17852   1.00
H2       0.36354    1.01218    0.15631   1.00
H2       0.33428    0.96955    0.16375   1.00
C5       0.39029    0.96803    0.19440   1.00
H2       0.40809    0.95666    0.16980   1.00
C5       -0.13227   0.82740    0.35070   1.00
H2       -0.14755   0.84266    0.32654   1.00
H2       -0.11099   0.84876    0.36261   1.00
C5       -0.16219   0.81563    0.38241   1.00
H2       -0.16890   0.84079    0.40185   1.00
H2       -0.15040   0.79124    0.40033   1.00
O_3      0.02000    0.70210    0.30207   1.00
C4       -0.02100   0.75019    0.24960   1.00
C3c      -0.04243   0.77632    0.27277   1.00
H1       -0.02725   0.79708    0.29103   1.00
C3d      -0.04135   0.72375    0.22559   1.00
C3       -0.08354   0.77578    0.27323   1.00
O2       -0.10248   0.80524    0.29288   1.00
C3       -0.08227   0.72263    0.22654   1.00
H1       -0.09657   0.70092    0.20868   1.00
C2       -0.10439   0.74857    0.25013   1.00
C5       0.02121    0.66275    0.28992   1.00
H2       0.05162    0.65132    0.28825   1.00
H2       0.00734    0.65907    0.26068   1.00
C5       -0.00122   0.63879    0.31973   1.00
H2       -0.03129   0.65090    0.32220   1.00
H2       0.01309    0.64238    0.34872   1.00
C5       -0.00254   0.59563    0.30798   1.00
H2       0.02740    0.58342    0.30518   1.00
H2       -0.01803   0.59187    0.27968   1.00
H2       -0.01830   0.57845    0.33054   1.00
C5       -0.01105   0.71075    0.16777   1.00
C5       -0.11070   0.79330    0.33151   1.00
H2       0.00912    0.73598    0.17089   1.00
H2       -0.03712   0.72027    0.15075   1.00
H2       -0.08300   0.78706    0.34745   1.00
H2       -0.12895   0.76625    0.33262   1.00
H2       -0.19055   0.80649    0.36911   1.00
H2       0.05750    0.71251    0.11875   1.00
H2       0.01234    0.71217    0.09092   1.00
C2       0.10395    0.74744    0.25024   1.00
C3       0.08403    0.77331    0.22511   1.00
O2       0.10326    0.79052    0.19422   1.00
C3       0.08174    0.72423    0.27618   1.00
H1       0.09615    0.70488    0.29648   1.00
C3a      0.04287    0.77467    0.22571   1.00
H1       0.02798    0.79298    0.20476   1.00
C3b      0.04078    0.72475    0.27583   1.00
C4       0.02100    0.75003    0.25042   1.00
O_3      -0.02167   0.69548    0.20450   1.00
C5       0.11280    0.82952    0.20332   1.00
H2       0.08609    0.84701    0.20986   1.00
C5       0.13334    0.84666    0.16755   1.00
H2       0.13274    0.83095    0.22898   1.00
H2       0.11077    0.85488    0.14567   1.00
H2       0.15101    0.82289    0.15415   1.00
C5       0.15931    0.88204    0.17750   1.00
H2       0.14189    0.90415    0.19359   1.00
H2       0.17109    0.89566    0.15045   1.00
H2       0.18506    0.87322    0.19550   1.00
C5       0.00980    0.67852    0.14541   1.00
H2       -0.01218   0.65631    0.13646   1.00
H2       0.03045    0.66375    0.16572   1.00
C5       0.03197    0.69440    0.10971   1.00
H2       0.04334    0.66980    0.09191   1.00
C5       0.63227    0.82740    0.14930   1.00
H2       0.64755    0.84266    0.17346   1.00
H2       0.61099    0.84876    0.13739   1.00
C5       0.66219    0.81563    0.11759   1.00
H2       0.66890    0.84079    0.09815   1.00
H2       0.65040    0.79124    0.09967   1.00
O_3      0.48000    0.70210    0.19793   1.00
C4       0.52100    0.75019    0.25040   1.00
C3c      0.54243    0.77632    0.22723   1.00
H1       0.52725    0.79708    0.20897   1.00
C3d      0.54135    0.72375    0.27441   1.00
C3       0.58354    0.77578    0.22677   1.00
O2       0.60248    0.80524    0.20712   1.00
C3       0.58227    0.72263    0.27346   1.00
H1       0.59657    0.70092    0.29132   1.00
C2       0.60439    0.74857    0.24987   1.00
C5       0.47879    0.66275    0.21008   1.00
H2       0.44838    0.65132    0.21175   1.00
H2       0.49266    0.65907    0.23932   1.00
C5       0.50122    0.63879    0.18027   1.00
H2       0.53129    0.65090    0.17780   1.00
H2       0.48691    0.64238    0.15128   1.00
C5       0.50254    0.59563    0.19202   1.00
H2       0.47260    0.58342    0.19482   1.00
H2       0.51803    0.59187    0.22032   1.00
H2       0.51830    0.57845    0.16946   1.00
C5       0.51105    0.71075    0.33223   1.00
C5       0.61070    0.79330    0.16849   1.00
H2       0.49088    0.73598    0.32911   1.00
H2       0.53712    0.72027    0.34925   1.00
H2       0.58300    0.78706    0.15255   1.00
H2       0.62895    0.76625    0.16738   1.00
H2       0.69055    0.80649    0.13089   1.00
H2       0.44250    0.71251    0.38125   1.00
H2       0.48766    0.71217    0.40908   1.00
C2       0.39605    0.74744    0.24976   1.00
C3       0.41597    0.77331    0.27489   1.00
O2       0.39674    0.79052    0.30578   1.00
C3       0.41826    0.72423    0.22382   1.00
H1       0.40385    0.70488    0.20352   1.00
C3a      0.45713    0.77467    0.27429   1.00
H1       0.47202    0.79298    0.29524   1.00
C3b      0.45922    0.72475    0.22417   1.00
C4       0.47900    0.75003    0.24958   1.00
O_3      0.52167    0.69548    0.29550   1.00
C5       0.38720    0.82952    0.29668   1.00
H2       0.41391    0.84701    0.29014   1.00
C5       0.36666    0.84666    0.33245   1.00
H2       0.36726    0.83095    0.27102   1.00
H2       0.38923    0.85488    0.35433   1.00
H2       0.34899    0.82289    0.34585   1.00
C5       0.34069    0.88204    0.32250   1.00
H2       0.35811    0.90415    0.30641   1.00
H2       0.32891    0.89566    0.34955   1.00
H2       0.31494    0.87322    0.30450   1.00
C5       0.49020    0.67852    0.35459   1.00
H2       0.51218    0.65631    0.36354   1.00
H2       0.46955    0.66375    0.33428   1.00
C5       0.46803    0.69440    0.39029   1.00
H2       0.45666    0.66980    0.40809   1.00
C5       0.35070    0.36773    0.32740   1.00
H2       0.32654    0.35245    0.34266   1.00
H2       0.36261    0.38901    0.34876   1.00
C5       0.38241    0.33781    0.31563   1.00
H2       0.40185    0.33110    0.34079   1.00
H2       0.40033    0.34960    0.29124   1.00
O_3      0.30207    0.52000    0.20210   1.00
C4       0.24960    0.47900    0.25019   1.00
C3c      0.27277    0.45757    0.27632   1.00
H1       0.29103    0.47275    0.29708   1.00
C3d      0.22559    0.45865    0.22375   1.00
C3       0.27323    0.41646    0.27578   1.00
O2       0.29288    0.39752    0.30524   1.00
C3       0.22654    0.41773    0.22263   1.00
H1       0.20868    0.40343    0.20092   1.00
C2       0.25013    0.39561    0.24857   1.00
C5       0.28992    0.52121    0.16275   1.00
H2       0.28825    0.55162    0.15132   1.00
H2       0.26068    0.50734    0.15907   1.00
C5       0.31973    0.49878    0.13879   1.00
H2       0.32220    0.46871    0.15090   1.00
H2       0.34872    0.51309    0.14238   1.00
C5       0.30798    0.49746    0.09563   1.00
H2       0.30518    0.52740    0.08342   1.00
H2       0.27968    0.48197    0.09187   1.00
H2       0.33054    0.48170    0.07845   1.00
C5       0.16777    0.48895    0.21075   1.00
C5       0.33151    0.38930    0.29330   1.00
H2       0.17089    0.50912    0.23598   1.00
H2       0.15075    0.46288    0.22027   1.00
H2       0.34745    0.41700    0.28706   1.00
H2       0.33262    0.37105    0.26625   1.00
H2       0.36911    0.30945    0.30649   1.00
H2       0.11875    0.55750    0.21251   1.00
H2       0.09092    0.51234    0.21217   1.00
C2       0.25024    0.60395    0.24744   1.00
C3       0.22511    0.58403    0.27331   1.00
O2       0.19422    0.60326    0.29052   1.00
C3       0.27618    0.58174    0.22423   1.00
H1       0.29648    0.59615    0.20488   1.00
C3a      0.22571    0.54287    0.27467   1.00
H1       0.20476    0.52798    0.29298   1.00
C3b      0.27583    0.54078    0.22475   1.00
C4       0.25042    0.52100    0.25003   1.00
O_3      0.20450    0.47833    0.19548   1.00
C5       0.20332    0.61280    0.32952   1.00
H2       0.20986    0.58609    0.34701   1.00
C5       0.16755    0.63334    0.34666   1.00
H2       0.22898    0.63274    0.33095   1.00
H2       0.14567    0.61077    0.35488   1.00
H2       0.15415    0.65101    0.32289   1.00
C5       0.17750    0.65931    0.38204   1.00
H2       0.19359    0.64189    0.40415   1.00
H2       0.15045    0.67109    0.39566   1.00
H2       0.19550    0.68506    0.37322   1.00
C5       0.14541    0.50980    0.17852   1.00
H2       0.13646    0.48782    0.15631   1.00
H2       0.16572    0.53045    0.16375   1.00
C5       0.10971    0.53197    0.19440   1.00
H2       0.09191    0.54334    0.16980   1.00
C5       0.32740    0.85070    -0.13227   1.00
H2       0.34266    0.82654    -0.14755   1.00
H2       0.34876    0.86261    -0.11099   1.00
C5       0.31563    0.88241    -0.16219   1.00
H2       0.34079    0.90185    -0.16890   1.00
H2       0.29124    0.90033    -0.15040   1.00
O_3      0.20210    0.80207    0.02000   1.00
C4       0.25019    0.74960    -0.02100   1.00
C3c      0.27632    0.77277    -0.04243   1.00
H1       0.29708    0.79103    -0.02725   1.00
C3d      0.22375    0.72559    -0.04135   1.00
C3       0.27578    0.77323    -0.08354   1.00
O2       0.30524    0.79288    -0.10248   1.00
C3       0.22263    0.72654    -0.08227   1.00
H1       0.20092    0.70868    -0.09657   1.00
C2       0.24857    0.75013    -0.10439   1.00
C5       0.16275    0.78992    0.02121   1.00
H2       0.15132    0.78825    0.05162   1.00
H2       0.15907    0.76068    0.00734   1.00
C5       0.13879    0.81973    -0.00122   1.00
H2       0.15090    0.82220    -0.03129   1.00
H2       0.14238    0.84872    0.01309   1.00
C5       0.09563    0.80798    -0.00254   1.00
H2       0.08342    0.80518    0.02740   1.00
H2       0.09187    0.77968    -0.01803   1.00
H2       0.07845    0.83054    -0.01830   1.00
C5       0.21075    0.66777    -0.01105   1.00
C5       0.29330    0.83151    -0.11070   1.00
H2       0.23598    0.67089    0.00912   1.00
H2       0.22027    0.65075    -0.03712   1.00
H2       0.28706    0.84745    -0.08300   1.00
H2       0.26625    0.83262    -0.12895   1.00
H2       0.30649    0.86911    -0.19055   1.00
H2       0.21251    0.61875    0.05750   1.00
H2       0.21217    0.59092    0.01234   1.00
C2       0.24744    0.75024    0.10395   1.00
C3       0.27331    0.72511    0.08403   1.00
O2       0.29052    0.69422    0.10326   1.00
C3       0.22423    0.77618    0.08174   1.00
H1       0.20488    0.79648    0.09615   1.00
C3a      0.27467    0.72571    0.04287   1.00
H1       0.29298    0.70476    0.02798   1.00
C3b      0.22475    0.77583    0.04078   1.00
C4       0.25003    0.75042    0.02100   1.00
O_3      0.19548    0.70450    -0.02167   1.00
C5       0.32952    0.70332    0.11280   1.00
H2       0.34701    0.70986    0.08609   1.00
C5       0.34666    0.66755    0.13334   1.00
H2       0.33095    0.72898    0.13274   1.00
H2       0.35488    0.64567    0.11077   1.00
H2       0.32289    0.65415    0.15101   1.00
C5       0.38204    0.67750    0.15931   1.00
H2       0.40415    0.69359    0.14189   1.00
H2       0.39566    0.65045    0.17109   1.00
H2       0.37322    0.69550    0.18506   1.00
C5       0.17852    0.64541    0.00980   1.00
H2       0.15631    0.63646    -0.01218   1.00
H2       0.16375    0.66572    0.03045   1.00
C5       0.19440    0.60971    0.03197   1.00
H2       0.16980    0.59191    0.04334   1.00
C5       0.82740    0.14930    0.63227   1.00
H2       0.84266    0.17346    0.64755   1.00
H2       0.84876    0.13739    0.61099   1.00
C5       0.81563    0.11759    0.66219   1.00
H2       0.84079    0.09815    0.66890   1.00
H2       0.79124    0.09967    0.65040   1.00
O_3      0.70210    0.19793    0.48000   1.00
C4       0.75019    0.25040    0.52100   1.00
C3c      0.77632    0.22723    0.54243   1.00
H1       0.79708    0.20897    0.52725   1.00
C3d      0.72375    0.27441    0.54135   1.00
C3       0.77578    0.22677    0.58354   1.00
O2       0.80524    0.20712    0.60248   1.00
C3       0.72263    0.27346    0.58227   1.00
H1       0.70092    0.29132    0.59657   1.00
C2       0.74857    0.24987    0.60439   1.00
C5       0.66275    0.21008    0.47879   1.00
H2       0.65132    0.21175    0.44838   1.00
H2       0.65907    0.23932    0.49266   1.00
C5       0.63879    0.18027    0.50122   1.00
H2       0.65090    0.17780    0.53129   1.00
H2       0.64238    0.15128    0.48691   1.00
C5       0.59563    0.19202    0.50254   1.00
H2       0.58342    0.19482    0.47260   1.00
H2       0.59187    0.22032    0.51803   1.00
H2       0.57845    0.16946    0.51830   1.00
C5       0.71075    0.33223    0.51105   1.00
C5       0.79330    0.16849    0.61070   1.00
H2       0.73598    0.32911    0.49088   1.00
H2       0.72027    0.34925    0.53712   1.00
H2       0.78706    0.15255    0.58300   1.00
H2       0.76625    0.16738    0.62895   1.00
H2       0.80649    0.13089    0.69055   1.00
H2       0.71251    0.38125    0.44250   1.00
H2       0.71217    0.40908    0.48766   1.00
C2       0.74744    0.24976    0.39605   1.00
C3       0.77331    0.27489    0.41597   1.00
O2       0.79052    0.30578    0.39674   1.00
C3       0.72423    0.22382    0.41826   1.00
H1       0.70488    0.20352    0.40385   1.00
C3a      0.77467    0.27429    0.45713   1.00
H1       0.79298    0.29524    0.47202   1.00
C3b      0.72475    0.22417    0.45922   1.00
C4       0.75003    0.24958    0.47900   1.00
O_3      0.69548    0.29550    0.52167   1.00
C5       0.82952    0.29668    0.38720   1.00
H2       0.84701    0.29014    0.41391   1.00
C5       0.84666    0.33245    0.36666   1.00
H2       0.83095    0.27102    0.36726   1.00
H2       0.85488    0.35433    0.38923   1.00
H2       0.82289    0.34585    0.34899   1.00
C5       0.88204    0.32250    0.34069   1.00
H2       0.90415    0.30641    0.35811   1.00
H2       0.89566    0.34955    0.32891   1.00
H2       0.87322    0.30450    0.31494   1.00
C5       0.67852    0.35459    0.49020   1.00
H2       0.65631    0.36354    0.51218   1.00
H2       0.66375    0.33428    0.46955   1.00
C5       0.69440    0.39029    0.46803   1.00
H2       0.66980    0.40809    0.45666   1.00
C5       0.64930    0.63227    0.32740   1.00
H2       0.67346    0.64755    0.34266   1.00
H2       0.63739    0.61099    0.34876   1.00
C5       0.61759    0.66219    0.31563   1.00
H2       0.59815    0.66890    0.34079   1.00
H2       0.59967    0.65040    0.29124   1.00
O_3      0.69793    0.48000    0.20210   1.00
C4       0.75040    0.52100    0.25019   1.00
C3c      0.72723    0.54243    0.27632   1.00
H1       0.70897    0.52725    0.29708   1.00
C3d      0.77441    0.54135    0.22375   1.00
C3       0.72677    0.58354    0.27578   1.00
O2       0.70712    0.60248    0.30524   1.00
C3       0.77346    0.58227    0.22263   1.00
H1       0.79132    0.59657    0.20092   1.00
C2       0.74987    0.60439    0.24857   1.00
C5       0.71008    0.47879    0.16275   1.00
H2       0.71175    0.44838    0.15132   1.00
H2       0.73932    0.49266    0.15907   1.00
C5       0.68027    0.50122    0.13879   1.00
H2       0.67780    0.53129    0.15090   1.00
H2       0.65128    0.48691    0.14238   1.00
C5       0.69202    0.50254    0.09563   1.00
H2       0.69482    0.47260    0.08342   1.00
H2       0.72032    0.51803    0.09187   1.00
H2       0.66946    0.51830    0.07845   1.00
C5       0.83223    0.51105    0.21075   1.00
C5       0.66849    0.61070    0.29330   1.00
H2       0.82911    0.49088    0.23598   1.00
H2       0.84925    0.53712    0.22027   1.00
H2       0.65255    0.58300    0.28706   1.00
H2       0.66738    0.62895    0.26625   1.00
H2       0.63089    0.69055    0.30649   1.00
H2       0.88125    0.44250    0.21251   1.00
H2       0.90908    0.48766    0.21217   1.00
C2       0.74976    0.39605    0.24744   1.00
C3       0.77489    0.41597    0.27331   1.00
O2       0.80578    0.39674    0.29052   1.00
C3       0.72382    0.41826    0.22423   1.00
H1       0.70352    0.40385    0.20488   1.00
C3a      0.77429    0.45713    0.27467   1.00
H1       0.79524    0.47202    0.29298   1.00
C3b      0.72417    0.45922    0.22475   1.00
C4       0.74958    0.47900    0.25003   1.00
O_3      0.79550    0.52167    0.19548   1.00
C5       0.79668    0.38720    0.32952   1.00
H2       0.79014    0.41391    0.34701   1.00
C5       0.83245    0.36666    0.34666   1.00
H2       0.77102    0.36726    0.33095   1.00
H2       0.85433    0.38923    0.35488   1.00
H2       0.84585    0.34899    0.32289   1.00
C5       0.82250    0.34069    0.38204   1.00
H2       0.80641    0.35811    0.40415   1.00
H2       0.84955    0.32891    0.39566   1.00
H2       0.80450    0.31494    0.37322   1.00
C5       0.85459    0.49020    0.17852   1.00
H2       0.86354    0.51218    0.15631   1.00
H2       0.83428    0.46955    0.16375   1.00
C5       0.89029    0.46803    0.19440   1.00
H2       0.90809    0.45666    0.16980   1.00
C5       0.36773    0.32740    0.35070   1.00
H2       0.35245    0.34266    0.32654   1.00
H2       0.38901    0.34876    0.36261   1.00
C5       0.33781    0.31563    0.38241   1.00
H2       0.33110    0.34079    0.40185   1.00
H2       0.34960    0.29124    0.40033   1.00
O_3      0.52000    0.20210    0.30207   1.00
C4       0.47900    0.25019    0.24960   1.00
C3c      0.45757    0.27632    0.27277   1.00
H1       0.47275    0.29708    0.29103   1.00
C3d      0.45865    0.22375    0.22559   1.00
C3       0.41646    0.27578    0.27323   1.00
O2       0.39752    0.30524    0.29288   1.00
C3       0.41773    0.22263    0.22654   1.00
H1       0.40343    0.20092    0.20868   1.00
C2       0.39561    0.24857    0.25013   1.00
C5       0.52121    0.16275    0.28992   1.00
H2       0.55162    0.15132    0.28825   1.00
H2       0.50734    0.15907    0.26068   1.00
C5       0.49878    0.13879    0.31973   1.00
H2       0.46871    0.15090    0.32220   1.00
H2       0.51309    0.14238    0.34872   1.00
C5       0.49746    0.09563    0.30798   1.00
H2       0.52740    0.08342    0.30518   1.00
H2       0.48197    0.09187    0.27968   1.00
H2       0.48170    0.07845    0.33054   1.00
C5       0.48895    0.21075    0.16777   1.00
C5       0.38930    0.29330    0.33151   1.00
H2       0.50912    0.23598    0.17089   1.00
H2       0.46288    0.22027    0.15075   1.00
H2       0.41700    0.28706    0.34745   1.00
H2       0.37105    0.26625    0.33262   1.00
H2       0.30945    0.30649    0.36911   1.00
H2       0.55750    0.21251    0.11875   1.00
H2       0.51234    0.21217    0.09092   1.00
C2       0.60395    0.24744    0.25024   1.00
C3       0.58403    0.27331    0.22511   1.00
O2       0.60326    0.29052    0.19422   1.00
C3       0.58174    0.22423    0.27618   1.00
H1       0.59615    0.20488    0.29648   1.00
C3a      0.54287    0.27467    0.22571   1.00
H1       0.52798    0.29298    0.20476   1.00
C3b      0.54078    0.22475    0.27583   1.00
C4       0.52100    0.25003    0.25042   1.00
O_3      0.47833    0.19548    0.20450   1.00
C5       0.61280    0.32952    0.20332   1.00
H2       0.58609    0.34701    0.20986   1.00
C5       0.63334    0.34666    0.16755   1.00
H2       0.63274    0.33095    0.22898   1.00
H2       0.61077    0.35488    0.14567   1.00
H2       0.65101    0.32289    0.15415   1.00
C5       0.65931    0.38204    0.17750   1.00
H2       0.64189    0.40415    0.19359   1.00
H2       0.67109    0.39566    0.15045   1.00
H2       0.68506    0.37322    0.19550   1.00
C5       0.50980    0.17852    0.14541   1.00
H2       0.48782    0.15631    0.13646   1.00
H2       0.53045    0.16375    0.16572   1.00
C5       0.53197    0.19440    0.10971   1.00
H2       0.54334    0.16980    0.09191   1.00
C5       1.13227    0.32740    0.14930   1.00
H2       1.14755    0.34266    0.17346   1.00
H2       1.11099    0.34876    0.13739   1.00
C5       1.16219    0.31563    0.11759   1.00
H2       1.16890    0.34079    0.09815   1.00
H2       1.15040    0.29124    0.09967   1.00
O_3      0.98000    0.20210    0.19793   1.00
C4       1.02100    0.25019    0.25040   1.00
C3c      1.04243    0.27632    0.22723   1.00
H1       1.02725    0.29708    0.20897   1.00
C3d      1.04135    0.22375    0.27441   1.00
C3       1.08354    0.27578    0.22677   1.00
O2       1.10248    0.30524    0.20712   1.00
C3       1.08227    0.22263    0.27346   1.00
H1       1.09657    0.20092    0.29132   1.00
C2       1.10439    0.24857    0.24987   1.00
C5       0.97879    0.16275    0.21008   1.00
H2       0.94838    0.15132    0.21175   1.00
H2       0.99266    0.15907    0.23932   1.00
C5       1.00122    0.13879    0.18027   1.00
H2       1.03129    0.15090    0.17780   1.00
H2       0.98691    0.14238    0.15128   1.00
C5       1.00254    0.09563    0.19202   1.00
H2       0.97260    0.08342    0.19482   1.00
H2       1.01803    0.09187    0.22032   1.00
H2       1.01830    0.07845    0.16946   1.00
C5       1.01105    0.21075    0.33223   1.00
C5       1.11070    0.29330    0.16849   1.00
H2       0.99088    0.23598    0.32911   1.00
H2       1.03712    0.22027    0.34925   1.00
H2       1.08300    0.28706    0.15255   1.00
H2       1.12895    0.26625    0.16738   1.00
H2       1.19055    0.30649    0.13089   1.00
H2       0.94250    0.21251    0.38125   1.00
H2       0.98766    0.21217    0.40908   1.00
C2       0.89605    0.24744    0.24976   1.00
C3       0.91597    0.27331    0.27489   1.00
O2       0.89674    0.29052    0.30578   1.00
C3       0.91826    0.22423    0.22382   1.00
H1       0.90385    0.20488    0.20352   1.00
C3a      0.95713    0.27467    0.27429   1.00
H1       0.97202    0.29298    0.29524   1.00
C3b      0.95922    0.22475    0.22417   1.00
C4       0.97900    0.25003    0.24958   1.00
O_3      1.02167    0.19548    0.29550   1.00
C5       0.88720    0.32952    0.29668   1.00
H2       0.91391    0.34701    0.29014   1.00
C5       0.86666    0.34666    0.33245   1.00
H2       0.86726    0.33095    0.27102   1.00
H2       0.88923    0.35488    0.35433   1.00
H2       0.84899    0.32289    0.34585   1.00
C5       0.84069    0.38204    0.32250   1.00
H2       0.85811    0.40415    0.30641   1.00
H2       0.82891    0.39566    0.34955   1.00
H2       0.81494    0.37322    0.30450   1.00
C5       0.99020    0.17852    0.35459   1.00
H2       1.01218    0.15631    0.36354   1.00
H2       0.96955    0.16375    0.33428   1.00
C5       0.96803    0.19440    0.39029   1.00
H2       0.95666    0.16980    0.40809   1.00
C5       0.85070    -0.13227   0.32740   1.00
H2       0.82654    -0.14755   0.34266   1.00
H2       0.86261    -0.11099   0.34876   1.00
C5       0.88241    -0.16219   0.31563   1.00
H2       0.90185    -0.16890   0.34079   1.00
H2       0.90033    -0.15040   0.29124   1.00
O_3      0.80207    0.02000    0.20210   1.00
C4       0.74960    -0.02100   0.25019   1.00
C3c      0.77277    -0.04243   0.27632   1.00
H1       0.79103    -0.02725   0.29708   1.00
C3d      0.72559    -0.04135   0.22375   1.00
C3       0.77323    -0.08354   0.27578   1.00
O2       0.79288    -0.10248   0.30524   1.00
C3       0.72654    -0.08227   0.22263   1.00
H1       0.70868    -0.09657   0.20092   1.00
C2       0.75013    -0.10439   0.24857   1.00
C5       0.78992    0.02121    0.16275   1.00
H2       0.78825    0.05162    0.15132   1.00
H2       0.76068    0.00734    0.15907   1.00
C5       0.81973    -0.00122   0.13879   1.00
H2       0.82220    -0.03129   0.15090   1.00
H2       0.84872    0.01309    0.14238   1.00
C5       0.80798    -0.00254   0.09563   1.00
H2       0.80518    0.02740    0.08342   1.00
H2       0.77968    -0.01803   0.09187   1.00
H2       0.83054    -0.01830   0.07845   1.00
C5       0.66777    -0.01105   0.21075   1.00
C5       0.83151    -0.11070   0.29330   1.00
H2       0.67089    0.00912    0.23598   1.00
H2       0.65075    -0.03712   0.22027   1.00
H2       0.84745    -0.08300   0.28706   1.00
H2       0.83262    -0.12895   0.26625   1.00
H2       0.86911    -0.19055   0.30649   1.00
H2       0.61875    0.05750    0.21251   1.00
H2       0.59092    0.01234    0.21217   1.00
C2       0.75024    0.10395    0.24744   1.00
C3       0.72511    0.08403    0.27331   1.00
O2       0.69422    0.10326    0.29052   1.00
C3       0.77618    0.08174    0.22423   1.00
H1       0.79648    0.09615    0.20488   1.00
C3a      0.72571    0.04287    0.27467   1.00
H1       0.70476    0.02798    0.29298   1.00
C3b      0.77583    0.04078    0.22475   1.00
C4       0.75042    0.02100    0.25003   1.00
O_3      0.70450    -0.02167   0.19548   1.00
C5       0.70332    0.11280    0.32952   1.00
H2       0.70986    0.08609    0.34701   1.00
C5       0.66755    0.13334    0.34666   1.00
H2       0.72898    0.13274    0.33095   1.00
H2       0.64567    0.11077    0.35488   1.00
H2       0.65415    0.15101    0.32289   1.00
C5       0.67750    0.15931    0.38204   1.00
H2       0.69359    0.14189    0.40415   1.00
H2       0.65045    0.17109    0.39566   1.00
H2       0.69550    0.18506    0.37322   1.00
C5       0.64541    0.00980    0.17852   1.00
H2       0.63646    -0.01218   0.15631   1.00
H2       0.66572    0.03045    0.16375   1.00
C5       0.60971    0.03197    0.19440   1.00
H2       0.59191    0.04334    0.16980   1.00
C5       0.82740    0.35070    -0.13227   1.00
H2       0.84266    0.32654    -0.14755   1.00
H2       0.84876    0.36261    -0.11099   1.00
C5       0.81563    0.38241    -0.16219   1.00
H2       0.84079    0.40185    -0.16890   1.00
H2       0.79124    0.40033    -0.15040   1.00
O_3      0.70210    0.30207    0.02000   1.00
C4       0.75019    0.24960    -0.02100   1.00
C3c      0.77632    0.27277    -0.04243   1.00
H1       0.79708    0.29103    -0.02725   1.00
C3d      0.72375    0.22559    -0.04135   1.00
C3       0.77578    0.27323    -0.08354   1.00
O2       0.80524    0.29288    -0.10248   1.00
C3       0.72263    0.22654    -0.08227   1.00
H1       0.70092    0.20868    -0.09657   1.00
C2       0.74857    0.25013    -0.10439   1.00
C5       0.66275    0.28992    0.02121   1.00
H2       0.65132    0.28825    0.05162   1.00
H2       0.65907    0.26068    0.00734   1.00
C5       0.63879    0.31973    -0.00122   1.00
H2       0.65090    0.32220    -0.03129   1.00
H2       0.64238    0.34872    0.01309   1.00
C5       0.59563    0.30798    -0.00254   1.00
H2       0.58342    0.30518    0.02740   1.00
H2       0.59187    0.27968    -0.01803   1.00
H2       0.57845    0.33054    -0.01830   1.00
C5       0.71075    0.16777    -0.01105   1.00
C5       0.79330    0.33151    -0.11070   1.00
H2       0.73598    0.17089    0.00912   1.00
H2       0.72027    0.15075    -0.03712   1.00
H2       0.78706    0.34745    -0.08300   1.00
H2       0.76625    0.33262    -0.12895   1.00
H2       0.80649    0.36911    -0.19055   1.00
H2       0.71251    0.11875    0.05750   1.00
H2       0.71217    0.09092    0.01234   1.00
C2       0.74744    0.25024    0.10395   1.00
C3       0.77331    0.22511    0.08403   1.00
O2       0.79052    0.19422    0.10326   1.00
C3       0.72423    0.27618    0.08174   1.00
H1       0.70488    0.29648    0.09615   1.00
C3a      0.77467    0.22571    0.04287   1.00
H1       0.79298    0.20476    0.02798   1.00
C3b      0.72475    0.27583    0.04078   1.00
C4       0.75003    0.25042    0.02100   1.00
O_3      0.69548    0.20450    -0.02167   1.00
C5       0.82952    0.20332    0.11280   1.00
H2       0.84701    0.20986    0.08609   1.00
C5       0.84666    0.16755    0.13334   1.00
H2       0.83095    0.22898    0.13274   1.00
H2       0.85488    0.14567    0.11077   1.00
H2       0.82289    0.15415    0.15101   1.00
C5       0.88204    0.17750    0.15931   1.00
H2       0.90415    0.19359    0.14189   1.00
H2       0.89566    0.15045    0.17109   1.00
H2       0.87322    0.19550    0.18506   1.00
C5       0.67852    0.14541    0.00980   1.00
H2       0.65631    0.13646    -0.01218   1.00
H2       0.66375    0.16572    0.03045   1.00
C5       0.69440    0.10971    0.03197   1.00
H2       0.66980    0.09191    0.04334   1.00
