data_IRMOF10_SG202_Ligand11_label_e.

_audit_creation_method             'generated by an auxiliary program of Tobunporous'

_symmetry_space_group_name_H-M     'P 1'
_symmetry_Int_Tables_number        1
_symmetry_cell_setting             triclinic

_cell_length_a                    34.2800
_cell_length_b                    34.2800
_cell_length_c                    34.2800
_cell_angle_alpha                 90.0000
_cell_angle_beta                  90.0000
_cell_angle_gamma                 90.0000

loop_
_atom_site_label
_atom_site_fract_x
_atom_site_fract_y
_atom_site_fract_z
_atom_site_occupancy
O1       0.75000    0.75000    0.75000   1.00
Zn1      0.71720    0.78280    0.78280   1.00
Zn1      0.78280    0.71720    0.78280   1.00
Zn1      0.78280    0.78280    0.71720   1.00
Zn1      0.71720    0.71720    0.71720   1.00
O2       0.72650    0.77350    0.83820   1.00
O2       0.72650    0.83820    0.77350   1.00
O2       0.66180    0.77350    0.77350   1.00
O2       0.77350    0.72650    0.83820   1.00
O2       0.83820    0.72650    0.77350   1.00
O2       0.77350    0.66180    0.77350   1.00
O2       0.77350    0.83820    0.72650   1.00
O2       0.83820    0.77350    0.72650   1.00
O2       0.77350    0.77350    0.66180   1.00
O2       0.66180    0.72650    0.72650   1.00
O2       0.72650    0.66180    0.72650   1.00
O2       0.72650    0.72650    0.66180   1.00
C1       0.75000    0.75000    0.85520   1.00
C1       0.75000    0.85520    0.75000   1.00
C1       0.64480    0.75000    0.75000   1.00
C1       0.85520    0.75000    0.75000   1.00
C1       0.75000    0.64480    0.75000   1.00
C1       0.75000    0.75000    0.64480   1.00
O1       0.25000    0.25000    0.75000   1.00
Zn1      0.21720    0.28280    0.78280   1.00
Zn1      0.28280    0.21720    0.78280   1.00
Zn1      0.28280    0.28280    0.71720   1.00
Zn1      0.21720    0.21720    0.71720   1.00
O2       0.22650    0.27350    0.83820   1.00
O2       0.22650    0.33820    0.77350   1.00
O2       0.16180    0.27350    0.77350   1.00
O2       0.27350    0.22650    0.83820   1.00
O2       0.33820    0.22650    0.77350   1.00
O2       0.27350    0.16180    0.77350   1.00
O2       0.27350    0.33820    0.72650   1.00
O2       0.33820    0.27350    0.72650   1.00
O2       0.27350    0.27350    0.66180   1.00
O2       0.16180    0.22650    0.72650   1.00
O2       0.22650    0.16180    0.72650   1.00
O2       0.22650    0.22650    0.66180   1.00
C1       0.25000    0.25000    0.85520   1.00
C1       0.25000    0.35520    0.75000   1.00
C1       0.14480    0.25000    0.75000   1.00
C1       0.35520    0.25000    0.75000   1.00
C1       0.25000    0.14480    0.75000   1.00
C1       0.25000    0.25000    0.64480   1.00
O1       0.25000    0.75000    0.25000   1.00
Zn1      0.21720    0.78280    0.28280   1.00
Zn1      0.28280    0.71720    0.28280   1.00
Zn1      0.28280    0.78280    0.21720   1.00
Zn1      0.21720    0.71720    0.21720   1.00
O2       0.22650    0.77350    0.33820   1.00
O2       0.22650    0.83820    0.27350   1.00
O2       0.16180    0.77350    0.27350   1.00
O2       0.27350    0.72650    0.33820   1.00
O2       0.33820    0.72650    0.27350   1.00
O2       0.27350    0.66180    0.27350   1.00
O2       0.27350    0.83820    0.22650   1.00
O2       0.33820    0.77350    0.22650   1.00
O2       0.27350    0.77350    0.16180   1.00
O2       0.16180    0.72650    0.22650   1.00
O2       0.22650    0.66180    0.22650   1.00
O2       0.22650    0.72650    0.16180   1.00
C1       0.25000    0.75000    0.35520   1.00
C1       0.25000    0.85520    0.25000   1.00
C1       0.14480    0.75000    0.25000   1.00
C1       0.35520    0.75000    0.25000   1.00
C1       0.25000    0.64480    0.25000   1.00
C1       0.25000    0.75000    0.14480   1.00
O1       0.75000    0.25000    0.25000   1.00
Zn1      0.71720    0.28280    0.28280   1.00
Zn1      0.78280    0.21720    0.28280   1.00
Zn1      0.78280    0.28280    0.21720   1.00
Zn1      0.71720    0.21720    0.21720   1.00
O2       0.72650    0.27350    0.33820   1.00
O2       0.72650    0.33820    0.27350   1.00
O2       0.66180    0.27350    0.27350   1.00
O2       0.77350    0.22650    0.33820   1.00
O2       0.83820    0.22650    0.27350   1.00
O2       0.77350    0.16180    0.27350   1.00
O2       0.77350    0.33820    0.22650   1.00
O2       0.83820    0.27350    0.22650   1.00
O2       0.77350    0.27350    0.16180   1.00
O2       0.66180    0.22650    0.22650   1.00
O2       0.72650    0.16180    0.22650   1.00
O2       0.72650    0.22650    0.16180   1.00
C1       0.75000    0.25000    0.35520   1.00
C1       0.75000    0.35520    0.25000   1.00
C1       0.64480    0.25000    0.25000   1.00
C1       0.85520    0.25000    0.25000   1.00
C1       0.75000    0.14480    0.25000   1.00
C1       0.75000    0.25000    0.14480   1.00
O1       0.25000    0.25000    0.25000   1.00
Zn1      0.28280    0.21720    0.21720   1.00
Zn1      0.21720    0.28280    0.21720   1.00
Zn1      0.21720    0.21720    0.28280   1.00
Zn1      0.28280    0.28280    0.28280   1.00
O2       0.27350    0.22650    0.16180   1.00
O2       0.27350    0.16180    0.22650   1.00
O2       0.33820    0.22650    0.22650   1.00
O2       0.22650    0.27350    0.16180   1.00
O2       0.16180    0.27350    0.22650   1.00
O2       0.22650    0.33820    0.22650   1.00
O2       0.22650    0.16180    0.27350   1.00
O2       0.16180    0.22650    0.27350   1.00
O2       0.22650    0.22650    0.33820   1.00
O2       0.33820    0.27350    0.27350   1.00
O2       0.27350    0.33820    0.27350   1.00
O2       0.27350    0.27350    0.33820   1.00
C1       0.25000    0.25000    0.14480   1.00
C1       0.25000    0.14480    0.25000   1.00
C1       0.35520    0.25000    0.25000   1.00
C1       0.14480    0.25000    0.25000   1.00
C1       0.25000    0.35520    0.25000   1.00
C1       0.25000    0.25000    0.35520   1.00
O1       0.75000    0.75000    0.25000   1.00
Zn1      0.78280    0.71720    0.21720   1.00
Zn1      0.71720    0.78280    0.21720   1.00
Zn1      0.71720    0.71720    0.28280   1.00
Zn1      0.78280    0.78280    0.28280   1.00
O2       0.77350    0.72650    0.16180   1.00
O2       0.77350    0.66180    0.22650   1.00
O2       0.83820    0.72650    0.22650   1.00
O2       0.72650    0.77350    0.16180   1.00
O2       0.66180    0.77350    0.22650   1.00
O2       0.72650    0.83820    0.22650   1.00
O2       0.72650    0.66180    0.27350   1.00
O2       0.66180    0.72650    0.27350   1.00
O2       0.72650    0.72650    0.33820   1.00
O2       0.83820    0.77350    0.27350   1.00
O2       0.77350    0.83820    0.27350   1.00
O2       0.77350    0.77350    0.33820   1.00
C1       0.75000    0.75000    0.14480   1.00
C1       0.75000    0.64480    0.25000   1.00
C1       0.85520    0.75000    0.25000   1.00
C1       0.64480    0.75000    0.25000   1.00
C1       0.75000    0.85520    0.25000   1.00
C1       0.75000    0.75000    0.35520   1.00
O1       0.75000    0.25000    0.75000   1.00
Zn1      0.78280    0.21720    0.71720   1.00
Zn1      0.71720    0.28280    0.71720   1.00
Zn1      0.71720    0.21720    0.78280   1.00
Zn1      0.78280    0.28280    0.78280   1.00
O2       0.77350    0.22650    0.66180   1.00
O2       0.77350    0.16180    0.72650   1.00
O2       0.83820    0.22650    0.72650   1.00
O2       0.72650    0.27350    0.66180   1.00
O2       0.66180    0.27350    0.72650   1.00
O2       0.72650    0.33820    0.72650   1.00
O2       0.72650    0.16180    0.77350   1.00
O2       0.66180    0.22650    0.77350   1.00
O2       0.72650    0.22650    0.83820   1.00
O2       0.83820    0.27350    0.77350   1.00
O2       0.77350    0.33820    0.77350   1.00
O2       0.77350    0.27350    0.83820   1.00
C1       0.75000    0.25000    0.64480   1.00
C1       0.75000    0.14480    0.75000   1.00
C1       0.85520    0.25000    0.75000   1.00
C1       0.64480    0.25000    0.75000   1.00
C1       0.75000    0.35520    0.75000   1.00
C1       0.75000    0.25000    0.85520   1.00
O1       0.25000    0.75000    0.75000   1.00
Zn1      0.28280    0.71720    0.71720   1.00
Zn1      0.21720    0.78280    0.71720   1.00
Zn1      0.21720    0.71720    0.78280   1.00
Zn1      0.28280    0.78280    0.78280   1.00
O2       0.27350    0.72650    0.66180   1.00
O2       0.27350    0.66180    0.72650   1.00
O2       0.33820    0.72650    0.72650   1.00
O2       0.22650    0.77350    0.66180   1.00
O2       0.16180    0.77350    0.72650   1.00
O2       0.22650    0.83820    0.72650   1.00
O2       0.22650    0.66180    0.77350   1.00
O2       0.16180    0.72650    0.77350   1.00
O2       0.22650    0.72650    0.83820   1.00
O2       0.33820    0.77350    0.77350   1.00
O2       0.27350    0.83820    0.77350   1.00
O2       0.27350    0.77350    0.83820   1.00
C1       0.25000    0.75000    0.64480   1.00
C1       0.25000    0.64480    0.75000   1.00
C1       0.35520    0.75000    0.75000   1.00
C1       0.14480    0.75000    0.75000   1.00
C1       0.25000    0.85520    0.75000   1.00
C1       0.25000    0.75000    0.85520   1.00
C4       0.75020    0.75002    0.97915   1.00
C4       0.74980    0.74998    1.02085   1.00
C3a      0.77485    0.77568    0.95746   1.00
C3       0.77908    0.73056    1.04232   1.00
C3       0.72613    0.72443    0.95768   1.00
C3a      0.71994    0.76932    1.04254   1.00
C2       0.75001    0.74992    0.89488   1.00
C2       0.75001    0.74992    1.10512   1.00
C3       0.77431    0.77527    0.91595   1.00
C3       0.77920    0.73066    1.08363   1.00
C3       0.72599    0.72450    0.91637   1.00
C3       0.72056    0.76904    1.08405   1.00
C5       0.80166    0.80432    0.97772   1.00
H1       0.80223    0.71555    1.02691   1.00
H1       0.79295    0.79496    0.89979   1.00
H1       0.80231    0.71561    1.09901   1.00
H1       0.70693    0.70456    0.90099   1.00
H1       0.69791    0.78395    1.10021   1.00
C5       0.68729    0.79107    1.02228   1.00
H1       0.70702    0.70453    0.97309   1.00
H2       0.67426    0.81273    1.04256   1.00
H2       0.69898    0.80810    0.99731   1.00
H2       0.80940    0.82838    0.95744   1.00
H2       0.78639    0.81822    1.00269   1.00
N1       0.65713    0.76412    1.00857   1.00
C6       0.63358    0.74235    1.03073   1.00
C6       0.64714    0.75742    0.97154   1.00
C6       0.60857    0.72107    1.00759   1.00
C6       0.61718    0.73066    0.96995   1.00
H3       0.63462    0.74160    1.06197   1.00
H3       0.66096    0.77090    0.94700   1.00
H3       0.58649    0.70085    1.01713   1.00
H3       0.60320    0.71938    0.94425   1.00
N1       0.83718    0.78498    0.99143   1.00
C6       0.84845    0.78073    1.02846   1.00
C6       0.86509    0.76916    0.96927   1.00
C6       0.88372    0.76153    1.03005   1.00
C6       0.89430    0.75416    0.99241   1.00
H3       0.83190    0.79070    1.05300   1.00
H3       0.86424    0.76819    0.93803   1.00
H3       0.89991    0.75374    1.05575   1.00
H3       0.92042    0.73952    0.98287   1.00
C4       0.75002    0.97915    0.75020   1.00
C4       0.74998    1.02085    0.74980   1.00
C3a      0.77568    0.95746    0.77485   1.00
C3       0.73056    1.04232    0.77908   1.00
C3       0.72443    0.95768    0.72613   1.00
C3a      0.76932    1.04254    0.71994   1.00
C2       0.74992    0.89488    0.75001   1.00
C2       0.74992    1.10512    0.75001   1.00
C3       0.77527    0.91595    0.77431   1.00
C3       0.73066    1.08363    0.77920   1.00
C3       0.72450    0.91637    0.72599   1.00
C3       0.76904    1.08405    0.72056   1.00
C5       0.80432    0.97772    0.80166   1.00
H1       0.71555    1.02691    0.80223   1.00
H1       0.79496    0.89979    0.79295   1.00
H1       0.71561    1.09901    0.80231   1.00
H1       0.70456    0.90099    0.70693   1.00
H1       0.78395    1.10021    0.69791   1.00
C5       0.79107    1.02228    0.68729   1.00
H1       0.70453    0.97309    0.70702   1.00
H2       0.81273    1.04256    0.67426   1.00
H2       0.80810    0.99731    0.69898   1.00
H2       0.82838    0.95744    0.80940   1.00
H2       0.81822    1.00269    0.78639   1.00
N1       0.76412    1.00857    0.65713   1.00
C6       0.74235    1.03073    0.63358   1.00
C6       0.75742    0.97154    0.64714   1.00
C6       0.72107    1.00759    0.60857   1.00
C6       0.73066    0.96995    0.61718   1.00
H3       0.74160    1.06197    0.63462   1.00
H3       0.77090    0.94700    0.66096   1.00
H3       0.70085    1.01713    0.58649   1.00
H3       0.71938    0.94425    0.60320   1.00
N1       0.78498    0.99143    0.83718   1.00
C6       0.78073    1.02846    0.84845   1.00
C6       0.76916    0.96927    0.86509   1.00
C6       0.76153    1.03005    0.88372   1.00
C6       0.75416    0.99241    0.89430   1.00
H3       0.79070    1.05300    0.83190   1.00
H3       0.76819    0.93803    0.86424   1.00
H3       0.75374    1.05575    0.89991   1.00
H3       0.73952    0.98287    0.92042   1.00
C4       0.52085    0.75020    0.74998   1.00
C4       0.47915    0.74980    0.75002   1.00
C3a      0.54254    0.77485    0.72432   1.00
C3       0.45768    0.77908    0.76944   1.00
C3       0.54232    0.72613    0.77557   1.00
C3a      0.45746    0.71994    0.73068   1.00
C2       0.60512    0.75001    0.75008   1.00
C2       0.39488    0.75001    0.75008   1.00
C3       0.58405    0.77431    0.72473   1.00
C3       0.41637    0.77920    0.76934   1.00
C3       0.58363    0.72599    0.77550   1.00
C3       0.41595    0.72056    0.73096   1.00
C5       0.52228    0.80166    0.69568   1.00
H1       0.47309    0.80223    0.78445   1.00
H1       0.60021    0.79295    0.70504   1.00
H1       0.40099    0.80231    0.78439   1.00
H1       0.59901    0.70693    0.79544   1.00
H1       0.39979    0.69791    0.71605   1.00
C5       0.47772    0.68729    0.70893   1.00
H1       0.52691    0.70702    0.79547   1.00
H2       0.45744    0.67426    0.68727   1.00
H2       0.50269    0.69898    0.69190   1.00
H2       0.54256    0.80940    0.67162   1.00
H2       0.49731    0.78639    0.68178   1.00
N1       0.49143    0.65713    0.73588   1.00
C6       0.46927    0.63358    0.75765   1.00
C6       0.52846    0.64714    0.74258   1.00
C6       0.49241    0.60857    0.77893   1.00
C6       0.53005    0.61718    0.76934   1.00
H3       0.43803    0.63462    0.75840   1.00
H3       0.55300    0.66096    0.72910   1.00
H3       0.48287    0.58649    0.79915   1.00
H3       0.55575    0.60320    0.78062   1.00
N1       0.50857    0.83718    0.71502   1.00
C6       0.47154    0.84845    0.71927   1.00
C6       0.53073    0.86509    0.73084   1.00
C6       0.46995    0.88372    0.73847   1.00
C6       0.50759    0.89430    0.74584   1.00
H3       0.44700    0.83190    0.70930   1.00
H3       0.56197    0.86424    0.73181   1.00
H3       0.44425    0.89991    0.74626   1.00
H3       0.51713    0.92042    0.76048   1.00
C4       0.97915    0.75020    0.75002   1.00
C4       1.02085    0.74980    0.74998   1.00
C3a      0.95746    0.77485    0.77568   1.00
C3       1.04232    0.77908    0.73056   1.00
C3       0.95768    0.72613    0.72443   1.00
C3a      1.04254    0.71994    0.76932   1.00
C2       0.89488    0.75001    0.74992   1.00
C2       1.10512    0.75001    0.74992   1.00
C3       0.91595    0.77431    0.77527   1.00
C3       1.08363    0.77920    0.73066   1.00
C3       0.91637    0.72599    0.72450   1.00
C3       1.08405    0.72056    0.76904   1.00
C5       0.97772    0.80166    0.80432   1.00
H1       1.02691    0.80223    0.71555   1.00
H1       0.89979    0.79295    0.79496   1.00
H1       1.09901    0.80231    0.71561   1.00
H1       0.90099    0.70693    0.70456   1.00
H1       1.10021    0.69791    0.78395   1.00
C5       1.02228    0.68729    0.79107   1.00
H1       0.97309    0.70702    0.70453   1.00
H2       1.04256    0.67426    0.81273   1.00
H2       0.99731    0.69898    0.80810   1.00
H2       0.95744    0.80940    0.82838   1.00
H2       1.00269    0.78639    0.81822   1.00
N1       1.00857    0.65713    0.76412   1.00
C6       1.03073    0.63358    0.74235   1.00
C6       0.97154    0.64714    0.75742   1.00
C6       1.00759    0.60857    0.72107   1.00
C6       0.96995    0.61718    0.73066   1.00
H3       1.06197    0.63462    0.74160   1.00
H3       0.94700    0.66096    0.77090   1.00
H3       1.01713    0.58649    0.70085   1.00
H3       0.94425    0.60320    0.71938   1.00
N1       0.99143    0.83718    0.78498   1.00
C6       1.02846    0.84845    0.78073   1.00
C6       0.96927    0.86509    0.76916   1.00
C6       1.03005    0.88372    0.76153   1.00
C6       0.99241    0.89430    0.75416   1.00
H3       1.05300    0.83190    0.79070   1.00
H3       0.93803    0.86424    0.76819   1.00
H3       1.05575    0.89991    0.75374   1.00
H3       0.98287    0.92042    0.73952   1.00
C4       0.74998    0.52085    0.75020   1.00
C4       0.75002    0.47915    0.74980   1.00
C3a      0.72432    0.54254    0.77485   1.00
C3       0.76944    0.45768    0.77908   1.00
C3       0.77557    0.54232    0.72613   1.00
C3a      0.73068    0.45746    0.71994   1.00
C2       0.75008    0.60512    0.75001   1.00
C2       0.75008    0.39488    0.75001   1.00
C3       0.72473    0.58405    0.77431   1.00
C3       0.76934    0.41637    0.77920   1.00
C3       0.77550    0.58363    0.72599   1.00
C3       0.73096    0.41595    0.72056   1.00
C5       0.69568    0.52228    0.80166   1.00
H1       0.78445    0.47309    0.80223   1.00
H1       0.70504    0.60021    0.79295   1.00
H1       0.78439    0.40099    0.80231   1.00
H1       0.79544    0.59901    0.70693   1.00
H1       0.71605    0.39979    0.69791   1.00
C5       0.70893    0.47772    0.68729   1.00
H1       0.79547    0.52691    0.70702   1.00
H2       0.68727    0.45744    0.67426   1.00
H2       0.69190    0.50269    0.69898   1.00
H2       0.67162    0.54256    0.80940   1.00
H2       0.68178    0.49731    0.78639   1.00
N1       0.73588    0.49143    0.65713   1.00
C6       0.75765    0.46927    0.63358   1.00
C6       0.74258    0.52846    0.64714   1.00
C6       0.77893    0.49241    0.60857   1.00
C6       0.76934    0.53005    0.61718   1.00
H3       0.75840    0.43803    0.63462   1.00
H3       0.72910    0.55300    0.66096   1.00
H3       0.79915    0.48287    0.58649   1.00
H3       0.78062    0.55575    0.60320   1.00
N1       0.71502    0.50857    0.83718   1.00
C6       0.71927    0.47154    0.84845   1.00
C6       0.73084    0.53073    0.86509   1.00
C6       0.73847    0.46995    0.88372   1.00
C6       0.74584    0.50759    0.89430   1.00
H3       0.70930    0.44700    0.83190   1.00
H3       0.73181    0.56197    0.86424   1.00
H3       0.74626    0.44425    0.89991   1.00
H3       0.76048    0.51713    0.92042   1.00
C4       0.75020    0.74998    0.52085   1.00
C4       0.74980    0.75002    0.47915   1.00
C3a      0.77485    0.72432    0.54254   1.00
C3       0.77908    0.76944    0.45768   1.00
C3       0.72613    0.77557    0.54232   1.00
C3a      0.71994    0.73068    0.45746   1.00
C2       0.75001    0.75008    0.60512   1.00
C2       0.75001    0.75008    0.39488   1.00
C3       0.77431    0.72473    0.58405   1.00
C3       0.77920    0.76934    0.41637   1.00
C3       0.72599    0.77550    0.58363   1.00
C3       0.72056    0.73096    0.41595   1.00
C5       0.80166    0.69568    0.52228   1.00
H1       0.80223    0.78445    0.47309   1.00
H1       0.79295    0.70504    0.60021   1.00
H1       0.80231    0.78439    0.40099   1.00
H1       0.70693    0.79544    0.59901   1.00
H1       0.69791    0.71605    0.39979   1.00
C5       0.68729    0.70893    0.47772   1.00
H1       0.70702    0.79547    0.52691   1.00
H2       0.67426    0.68727    0.45744   1.00
H2       0.69898    0.69190    0.50269   1.00
H2       0.80940    0.67162    0.54256   1.00
H2       0.78639    0.68178    0.49731   1.00
N1       0.65713    0.73588    0.49143   1.00
C6       0.63358    0.75765    0.46927   1.00
C6       0.64714    0.74258    0.52846   1.00
C6       0.60857    0.77893    0.49241   1.00
C6       0.61718    0.76934    0.53005   1.00
H3       0.63462    0.75840    0.43803   1.00
H3       0.66096    0.72910    0.55300   1.00
H3       0.58649    0.79915    0.48287   1.00
H3       0.60320    0.78062    0.55575   1.00
N1       0.83718    0.71502    0.50857   1.00
C6       0.84845    0.71927    0.47154   1.00
C6       0.86509    0.73084    0.53073   1.00
C6       0.88372    0.73847    0.46995   1.00
C6       0.89430    0.74584    0.50759   1.00
H3       0.83190    0.70930    0.44700   1.00
H3       0.86424    0.73181    0.56197   1.00
H3       0.89991    0.74626    0.44425   1.00
H3       0.92042    0.76048    0.51713   1.00
C4       0.25020    0.25002    0.97915   1.00
C4       0.24980    0.24998    1.02085   1.00
C3a      0.27485    0.27568    0.95746   1.00
C3       0.27908    0.23056    1.04232   1.00
C3       0.22613    0.22443    0.95768   1.00
C3a      0.21994    0.26932    1.04254   1.00
C2       0.25001    0.24992    0.89488   1.00
C2       0.25001    0.24992    1.10512   1.00
C3       0.27431    0.27527    0.91595   1.00
C3       0.27920    0.23066    1.08363   1.00
C3       0.22599    0.22450    0.91637   1.00
C3       0.22056    0.26904    1.08405   1.00
C5       0.30166    0.30432    0.97772   1.00
H1       0.30223    0.21555    1.02691   1.00
H1       0.29295    0.29496    0.89979   1.00
H1       0.30231    0.21561    1.09901   1.00
H1       0.20693    0.20456    0.90099   1.00
H1       0.19791    0.28395    1.10021   1.00
C5       0.18729    0.29107    1.02228   1.00
H1       0.20702    0.20453    0.97309   1.00
H2       0.17426    0.31273    1.04256   1.00
H2       0.19898    0.30810    0.99731   1.00
H2       0.30940    0.32838    0.95744   1.00
H2       0.28639    0.31822    1.00269   1.00
N1       0.15713    0.26412    1.00857   1.00
C6       0.13358    0.24235    1.03073   1.00
C6       0.14714    0.25742    0.97154   1.00
C6       0.10857    0.22107    1.00759   1.00
C6       0.11718    0.23066    0.96995   1.00
H3       0.13462    0.24160    1.06197   1.00
H3       0.16096    0.27090    0.94700   1.00
H3       0.08649    0.20085    1.01713   1.00
H3       0.10320    0.21938    0.94425   1.00
N1       0.33718    0.28498    0.99143   1.00
C6       0.34845    0.28073    1.02846   1.00
C6       0.36509    0.26916    0.96927   1.00
C6       0.38372    0.26153    1.03005   1.00
C6       0.39430    0.25416    0.99241   1.00
H3       0.33190    0.29070    1.05300   1.00
H3       0.36424    0.26819    0.93803   1.00
H3       0.39991    0.25374    1.05575   1.00
H3       0.42042    0.23952    0.98287   1.00
C4       0.25002    0.47915    0.75020   1.00
C4       0.24998    0.52085    0.74980   1.00
C3a      0.27568    0.45746    0.77485   1.00
C3       0.23056    0.54232    0.77908   1.00
C3       0.22443    0.45768    0.72613   1.00
C3a      0.26932    0.54254    0.71994   1.00
C2       0.24992    0.39488    0.75001   1.00
C2       0.24992    0.60512    0.75001   1.00
C3       0.27527    0.41595    0.77431   1.00
C3       0.23066    0.58363    0.77920   1.00
C3       0.22450    0.41637    0.72599   1.00
C3       0.26904    0.58405    0.72056   1.00
C5       0.30432    0.47772    0.80166   1.00
H1       0.21555    0.52691    0.80223   1.00
H1       0.29496    0.39979    0.79295   1.00
H1       0.21561    0.59901    0.80231   1.00
H1       0.20456    0.40099    0.70693   1.00
H1       0.28395    0.60021    0.69791   1.00
C5       0.29107    0.52228    0.68729   1.00
H1       0.20453    0.47309    0.70702   1.00
H2       0.31273    0.54256    0.67426   1.00
H2       0.30810    0.49731    0.69898   1.00
H2       0.32838    0.45744    0.80940   1.00
H2       0.31822    0.50269    0.78639   1.00
N1       0.26412    0.50857    0.65713   1.00
C6       0.24235    0.53073    0.63358   1.00
C6       0.25742    0.47154    0.64714   1.00
C6       0.22107    0.50759    0.60857   1.00
C6       0.23066    0.46995    0.61718   1.00
H3       0.24160    0.56197    0.63462   1.00
H3       0.27090    0.44700    0.66096   1.00
H3       0.20085    0.51713    0.58649   1.00
H3       0.21938    0.44425    0.60320   1.00
N1       0.28498    0.49143    0.83718   1.00
C6       0.28073    0.52846    0.84845   1.00
C6       0.26916    0.46927    0.86509   1.00
C6       0.26153    0.53005    0.88372   1.00
C6       0.25416    0.49241    0.89430   1.00
H3       0.29070    0.55300    0.83190   1.00
H3       0.26819    0.43803    0.86424   1.00
H3       0.25374    0.55575    0.89991   1.00
H3       0.23952    0.48287    0.92042   1.00
C4       0.02085    0.25020    0.74998   1.00
C4       -0.02085   0.24980    0.75002   1.00
C3a      0.04254    0.27485    0.72432   1.00
C3       -0.04232   0.27908    0.76944   1.00
C3       0.04232    0.22613    0.77557   1.00
C3a      -0.04254   0.21994    0.73068   1.00
C2       0.10512    0.25001    0.75008   1.00
C2       -0.10512   0.25001    0.75008   1.00
C3       0.08405    0.27431    0.72473   1.00
C3       -0.08363   0.27920    0.76934   1.00
C3       0.08363    0.22599    0.77550   1.00
C3       -0.08405   0.22056    0.73096   1.00
C5       0.02228    0.30166    0.69568   1.00
H1       -0.02691   0.30223    0.78445   1.00
H1       0.10021    0.29295    0.70504   1.00
H1       -0.09901   0.30231    0.78439   1.00
H1       0.09901    0.20693    0.79544   1.00
H1       -0.10021   0.19791    0.71605   1.00
C5       -0.02228   0.18729    0.70893   1.00
H1       0.02691    0.20702    0.79547   1.00
H2       -0.04256   0.17426    0.68727   1.00
H2       0.00269    0.19898    0.69190   1.00
H2       0.04256    0.30940    0.67162   1.00
H2       -0.00269   0.28639    0.68178   1.00
N1       -0.00857   0.15713    0.73588   1.00
C6       -0.03073   0.13358    0.75765   1.00
C6       0.02846    0.14714    0.74258   1.00
C6       -0.00759   0.10857    0.77893   1.00
C6       0.03005    0.11718    0.76934   1.00
H3       -0.06197   0.13462    0.75840   1.00
H3       0.05300    0.16096    0.72910   1.00
H3       -0.01713   0.08649    0.79915   1.00
H3       0.05575    0.10320    0.78062   1.00
N1       0.00857    0.33718    0.71502   1.00
C6       -0.02846   0.34845    0.71927   1.00
C6       0.03073    0.36509    0.73084   1.00
C6       -0.03005   0.38372    0.73847   1.00
C6       0.00759    0.39430    0.74584   1.00
H3       -0.05300   0.33190    0.70930   1.00
H3       0.06197    0.36424    0.73181   1.00
H3       -0.05575   0.39991    0.74626   1.00
H3       0.01713    0.42042    0.76048   1.00
C4       0.47915    0.25020    0.75002   1.00
C4       0.52085    0.24980    0.74998   1.00
C3a      0.45746    0.27485    0.77568   1.00
C3       0.54232    0.27908    0.73056   1.00
C3       0.45768    0.22613    0.72443   1.00
C3a      0.54254    0.21994    0.76932   1.00
C2       0.39488    0.25001    0.74992   1.00
C2       0.60512    0.25001    0.74992   1.00
C3       0.41595    0.27431    0.77527   1.00
C3       0.58363    0.27920    0.73066   1.00
C3       0.41637    0.22599    0.72450   1.00
C3       0.58405    0.22056    0.76904   1.00
C5       0.47772    0.30166    0.80432   1.00
H1       0.52691    0.30223    0.71555   1.00
H1       0.39979    0.29295    0.79496   1.00
H1       0.59901    0.30231    0.71561   1.00
H1       0.40099    0.20693    0.70456   1.00
H1       0.60021    0.19791    0.78395   1.00
C5       0.52228    0.18729    0.79107   1.00
H1       0.47309    0.20702    0.70453   1.00
H2       0.54256    0.17426    0.81273   1.00
H2       0.49731    0.19898    0.80810   1.00
H2       0.45744    0.30940    0.82838   1.00
H2       0.50269    0.28639    0.81822   1.00
N1       0.50857    0.15713    0.76412   1.00
C6       0.53073    0.13358    0.74235   1.00
C6       0.47154    0.14714    0.75742   1.00
C6       0.50759    0.10857    0.72107   1.00
C6       0.46995    0.11718    0.73066   1.00
H3       0.56197    0.13462    0.74160   1.00
H3       0.44700    0.16096    0.77090   1.00
H3       0.51713    0.08649    0.70085   1.00
H3       0.44425    0.10320    0.71938   1.00
N1       0.49143    0.33718    0.78498   1.00
C6       0.52846    0.34845    0.78073   1.00
C6       0.46927    0.36509    0.76916   1.00
C6       0.53005    0.38372    0.76153   1.00
C6       0.49241    0.39430    0.75416   1.00
H3       0.55300    0.33190    0.79070   1.00
H3       0.43803    0.36424    0.76819   1.00
H3       0.55575    0.39991    0.75374   1.00
H3       0.48287    0.42042    0.73952   1.00
C4       0.24998    0.02085    0.75020   1.00
C4       0.25002    -0.02085   0.74980   1.00
C3a      0.22432    0.04254    0.77485   1.00
C3       0.26944    -0.04232   0.77908   1.00
C3       0.27557    0.04232    0.72613   1.00
C3a      0.23068    -0.04254   0.71994   1.00
C2       0.25008    0.10512    0.75001   1.00
C2       0.25008    -0.10512   0.75001   1.00
C3       0.22473    0.08405    0.77431   1.00
C3       0.26934    -0.08363   0.77920   1.00
C3       0.27550    0.08363    0.72599   1.00
C3       0.23096    -0.08405   0.72056   1.00
C5       0.19568    0.02228    0.80166   1.00
H1       0.28445    -0.02691   0.80223   1.00
H1       0.20504    0.10021    0.79295   1.00
H1       0.28439    -0.09901   0.80231   1.00
H1       0.29544    0.09901    0.70693   1.00
H1       0.21605    -0.10021   0.69791   1.00
C5       0.20893    -0.02228   0.68729   1.00
H1       0.29547    0.02691    0.70702   1.00
H2       0.18727    -0.04256   0.67426   1.00
H2       0.19190    0.00269    0.69898   1.00
H2       0.17162    0.04256    0.80940   1.00
H2       0.18178    -0.00269   0.78639   1.00
N1       0.23588    -0.00857   0.65713   1.00
C6       0.25765    -0.03073   0.63358   1.00
C6       0.24258    0.02846    0.64714   1.00
C6       0.27893    -0.00759   0.60857   1.00
C6       0.26934    0.03005    0.61718   1.00
H3       0.25840    -0.06197   0.63462   1.00
H3       0.22910    0.05300    0.66096   1.00
H3       0.29915    -0.01713   0.58649   1.00
H3       0.28062    0.05575    0.60320   1.00
N1       0.21502    0.00857    0.83718   1.00
C6       0.21927    -0.02846   0.84845   1.00
C6       0.23084    0.03073    0.86509   1.00
C6       0.23847    -0.03005   0.88372   1.00
C6       0.24584    0.00759    0.89430   1.00
H3       0.20930    -0.05300   0.83190   1.00
H3       0.23181    0.06197    0.86424   1.00
H3       0.24626    -0.05575   0.89991   1.00
H3       0.26048    0.01713    0.92042   1.00
C4       0.25020    0.24998    0.52085   1.00
C4       0.24980    0.25002    0.47915   1.00
C3a      0.27485    0.22432    0.54254   1.00
C3       0.27908    0.26944    0.45768   1.00
C3       0.22613    0.27557    0.54232   1.00
C3a      0.21994    0.23068    0.45746   1.00
C2       0.25001    0.25008    0.60512   1.00
C2       0.25001    0.25008    0.39488   1.00
C3       0.27431    0.22473    0.58405   1.00
C3       0.27920    0.26934    0.41637   1.00
C3       0.22599    0.27550    0.58363   1.00
C3       0.22056    0.23096    0.41595   1.00
C5       0.30166    0.19568    0.52228   1.00
H1       0.30223    0.28445    0.47309   1.00
H1       0.29295    0.20504    0.60021   1.00
H1       0.30231    0.28439    0.40099   1.00
H1       0.20693    0.29544    0.59901   1.00
H1       0.19791    0.21605    0.39979   1.00
C5       0.18729    0.20893    0.47772   1.00
H1       0.20702    0.29547    0.52691   1.00
H2       0.17426    0.18727    0.45744   1.00
H2       0.19898    0.19190    0.50269   1.00
H2       0.30940    0.17162    0.54256   1.00
H2       0.28639    0.18178    0.49731   1.00
N1       0.15713    0.23588    0.49143   1.00
C6       0.13358    0.25765    0.46927   1.00
C6       0.14714    0.24258    0.52846   1.00
C6       0.10857    0.27893    0.49241   1.00
C6       0.11718    0.26934    0.53005   1.00
H3       0.13462    0.25840    0.43803   1.00
H3       0.16096    0.22910    0.55300   1.00
H3       0.08649    0.29915    0.48287   1.00
H3       0.10320    0.28062    0.55575   1.00
N1       0.33718    0.21502    0.50857   1.00
C6       0.34845    0.21927    0.47154   1.00
C6       0.36509    0.23084    0.53073   1.00
C6       0.38372    0.23847    0.46995   1.00
C6       0.39430    0.24584    0.50759   1.00
H3       0.33190    0.20930    0.44700   1.00
H3       0.36424    0.23181    0.56197   1.00
H3       0.39991    0.24626    0.44425   1.00
H3       0.42042    0.26048    0.51713   1.00
C4       0.25020    0.75002    0.47915   1.00
C4       0.24980    0.74998    0.52085   1.00
C3a      0.27485    0.77568    0.45746   1.00
C3       0.27908    0.73056    0.54232   1.00
C3       0.22613    0.72443    0.45768   1.00
C3a      0.21994    0.76932    0.54254   1.00
C2       0.25001    0.74992    0.39488   1.00
C2       0.25001    0.74992    0.60512   1.00
C3       0.27431    0.77527    0.41595   1.00
C3       0.27920    0.73066    0.58363   1.00
C3       0.22599    0.72450    0.41637   1.00
C3       0.22056    0.76904    0.58405   1.00
C5       0.30166    0.80432    0.47772   1.00
H1       0.30223    0.71555    0.52691   1.00
H1       0.29295    0.79496    0.39979   1.00
H1       0.30231    0.71561    0.59901   1.00
H1       0.20693    0.70456    0.40099   1.00
H1       0.19791    0.78395    0.60021   1.00
C5       0.18729    0.79107    0.52228   1.00
H1       0.20702    0.70453    0.47309   1.00
H2       0.17426    0.81273    0.54256   1.00
H2       0.19898    0.80810    0.49731   1.00
H2       0.30940    0.82838    0.45744   1.00
H2       0.28639    0.81822    0.50269   1.00
N1       0.15713    0.76412    0.50857   1.00
C6       0.13358    0.74235    0.53073   1.00
C6       0.14714    0.75742    0.47154   1.00
C6       0.10857    0.72107    0.50759   1.00
C6       0.11718    0.73066    0.46995   1.00
H3       0.13462    0.74160    0.56197   1.00
H3       0.16096    0.77090    0.44700   1.00
H3       0.08649    0.70085    0.51713   1.00
H3       0.10320    0.71938    0.44425   1.00
N1       0.33718    0.78498    0.49143   1.00
C6       0.34845    0.78073    0.52846   1.00
C6       0.36509    0.76916    0.46927   1.00
C6       0.38372    0.76153    0.53005   1.00
C6       0.39430    0.75416    0.49241   1.00
H3       0.33190    0.79070    0.55300   1.00
H3       0.36424    0.76819    0.43803   1.00
H3       0.39991    0.75374    0.55575   1.00
H3       0.42042    0.73952    0.48287   1.00
C4       0.25002    0.97915    0.25020   1.00
C4       0.24998    1.02085    0.24980   1.00
C3a      0.27568    0.95746    0.27485   1.00
C3       0.23056    1.04232    0.27908   1.00
C3       0.22443    0.95768    0.22613   1.00
C3a      0.26932    1.04254    0.21994   1.00
C2       0.24992    0.89488    0.25001   1.00
C2       0.24992    1.10512    0.25001   1.00
C3       0.27527    0.91595    0.27431   1.00
C3       0.23066    1.08363    0.27920   1.00
C3       0.22450    0.91637    0.22599   1.00
C3       0.26904    1.08405    0.22056   1.00
C5       0.30432    0.97772    0.30166   1.00
H1       0.21555    1.02691    0.30223   1.00
H1       0.29496    0.89979    0.29295   1.00
H1       0.21561    1.09901    0.30231   1.00
H1       0.20456    0.90099    0.20693   1.00
H1       0.28395    1.10021    0.19791   1.00
C5       0.29107    1.02228    0.18729   1.00
H1       0.20453    0.97309    0.20702   1.00
H2       0.31273    1.04256    0.17426   1.00
H2       0.30810    0.99731    0.19898   1.00
H2       0.32838    0.95744    0.30940   1.00
H2       0.31822    1.00269    0.28639   1.00
N1       0.26412    1.00857    0.15713   1.00
C6       0.24235    1.03073    0.13358   1.00
C6       0.25742    0.97154    0.14714   1.00
C6       0.22107    1.00759    0.10857   1.00
C6       0.23066    0.96995    0.11718   1.00
H3       0.24160    1.06197    0.13462   1.00
H3       0.27090    0.94700    0.16096   1.00
H3       0.20085    1.01713    0.08649   1.00
H3       0.21938    0.94425    0.10320   1.00
N1       0.28498    0.99143    0.33718   1.00
C6       0.28073    1.02846    0.34845   1.00
C6       0.26916    0.96927    0.36509   1.00
C6       0.26153    1.03005    0.38372   1.00
C6       0.25416    0.99241    0.39430   1.00
H3       0.29070    1.05300    0.33190   1.00
H3       0.26819    0.93803    0.36424   1.00
H3       0.25374    1.05575    0.39991   1.00
H3       0.23952    0.98287    0.42042   1.00
C4       0.02085    0.75020    0.24998   1.00
C4       -0.02085   0.74980    0.25002   1.00
C3a      0.04254    0.77485    0.22432   1.00
C3       -0.04232   0.77908    0.26944   1.00
C3       0.04232    0.72613    0.27557   1.00
C3a      -0.04254   0.71994    0.23068   1.00
C2       0.10512    0.75001    0.25008   1.00
C2       -0.10512   0.75001    0.25008   1.00
C3       0.08405    0.77431    0.22473   1.00
C3       -0.08363   0.77920    0.26934   1.00
C3       0.08363    0.72599    0.27550   1.00
C3       -0.08405   0.72056    0.23096   1.00
C5       0.02228    0.80166    0.19568   1.00
H1       -0.02691   0.80223    0.28445   1.00
H1       0.10021    0.79295    0.20504   1.00
H1       -0.09901   0.80231    0.28439   1.00
H1       0.09901    0.70693    0.29544   1.00
H1       -0.10021   0.69791    0.21605   1.00
C5       -0.02228   0.68729    0.20893   1.00
H1       0.02691    0.70702    0.29547   1.00
H2       -0.04256   0.67426    0.18727   1.00
H2       0.00269    0.69898    0.19190   1.00
H2       0.04256    0.80940    0.17162   1.00
H2       -0.00269   0.78639    0.18178   1.00
N1       -0.00857   0.65713    0.23588   1.00
C6       -0.03073   0.63358    0.25765   1.00
C6       0.02846    0.64714    0.24258   1.00
C6       -0.00759   0.60857    0.27893   1.00
C6       0.03005    0.61718    0.26934   1.00
H3       -0.06197   0.63462    0.25840   1.00
H3       0.05300    0.66096    0.22910   1.00
H3       -0.01713   0.58649    0.29915   1.00
H3       0.05575    0.60320    0.28062   1.00
N1       0.00857    0.83718    0.21502   1.00
C6       -0.02846   0.84845    0.21927   1.00
C6       0.03073    0.86509    0.23084   1.00
C6       -0.03005   0.88372    0.23847   1.00
C6       0.00759    0.89430    0.24584   1.00
H3       -0.05300   0.83190    0.20930   1.00
H3       0.06197    0.86424    0.23181   1.00
H3       -0.05575   0.89991    0.24626   1.00
H3       0.01713    0.92042    0.26048   1.00
C4       0.47915    0.75020    0.25002   1.00
C4       0.52085    0.74980    0.24998   1.00
C3a      0.45746    0.77485    0.27568   1.00
C3       0.54232    0.77908    0.23056   1.00
C3       0.45768    0.72613    0.22443   1.00
C3a      0.54254    0.71994    0.26932   1.00
C2       0.39488    0.75001    0.24992   1.00
C2       0.60512    0.75001    0.24992   1.00
C3       0.41595    0.77431    0.27527   1.00
C3       0.58363    0.77920    0.23066   1.00
C3       0.41637    0.72599    0.22450   1.00
C3       0.58405    0.72056    0.26904   1.00
C5       0.47772    0.80166    0.30432   1.00
H1       0.52691    0.80223    0.21555   1.00
H1       0.39979    0.79295    0.29496   1.00
H1       0.59901    0.80231    0.21561   1.00
H1       0.40099    0.70693    0.20456   1.00
H1       0.60021    0.69791    0.28395   1.00
C5       0.52228    0.68729    0.29107   1.00
H1       0.47309    0.70702    0.20453   1.00
H2       0.54256    0.67426    0.31273   1.00
H2       0.49731    0.69898    0.30810   1.00
H2       0.45744    0.80940    0.32838   1.00
H2       0.50269    0.78639    0.31822   1.00
N1       0.50857    0.65713    0.26412   1.00
C6       0.53073    0.63358    0.24235   1.00
C6       0.47154    0.64714    0.25742   1.00
C6       0.50759    0.60857    0.22107   1.00
C6       0.46995    0.61718    0.23066   1.00
H3       0.56197    0.63462    0.24160   1.00
H3       0.44700    0.66096    0.27090   1.00
H3       0.51713    0.58649    0.20085   1.00
H3       0.44425    0.60320    0.21938   1.00
N1       0.49143    0.83718    0.28498   1.00
C6       0.52846    0.84845    0.28073   1.00
C6       0.46927    0.86509    0.26916   1.00
C6       0.53005    0.88372    0.26153   1.00
C6       0.49241    0.89430    0.25416   1.00
H3       0.55300    0.83190    0.29070   1.00
H3       0.43803    0.86424    0.26819   1.00
H3       0.55575    0.89991    0.25374   1.00
H3       0.48287    0.92042    0.23952   1.00
C4       0.24998    0.52085    0.25020   1.00
C4       0.25002    0.47915    0.24980   1.00
C3a      0.22432    0.54254    0.27485   1.00
C3       0.26944    0.45768    0.27908   1.00
C3       0.27557    0.54232    0.22613   1.00
C3a      0.23068    0.45746    0.21994   1.00
C2       0.25008    0.60512    0.25001   1.00
C2       0.25008    0.39488    0.25001   1.00
C3       0.22473    0.58405    0.27431   1.00
C3       0.26934    0.41637    0.27920   1.00
C3       0.27550    0.58363    0.22599   1.00
C3       0.23096    0.41595    0.22056   1.00
C5       0.19568    0.52228    0.30166   1.00
H1       0.28445    0.47309    0.30223   1.00
H1       0.20504    0.60021    0.29295   1.00
H1       0.28439    0.40099    0.30231   1.00
H1       0.29544    0.59901    0.20693   1.00
H1       0.21605    0.39979    0.19791   1.00
C5       0.20893    0.47772    0.18729   1.00
H1       0.29547    0.52691    0.20702   1.00
H2       0.18727    0.45744    0.17426   1.00
H2       0.19190    0.50269    0.19898   1.00
H2       0.17162    0.54256    0.30940   1.00
H2       0.18178    0.49731    0.28639   1.00
N1       0.23588    0.49143    0.15713   1.00
C6       0.25765    0.46927    0.13358   1.00
C6       0.24258    0.52846    0.14714   1.00
C6       0.27893    0.49241    0.10857   1.00
C6       0.26934    0.53005    0.11718   1.00
H3       0.25840    0.43803    0.13462   1.00
H3       0.22910    0.55300    0.16096   1.00
H3       0.29915    0.48287    0.08649   1.00
H3       0.28062    0.55575    0.10320   1.00
N1       0.21502    0.50857    0.33718   1.00
C6       0.21927    0.47154    0.34845   1.00
C6       0.23084    0.53073    0.36509   1.00
C6       0.23847    0.46995    0.38372   1.00
C6       0.24584    0.50759    0.39430   1.00
H3       0.20930    0.44700    0.33190   1.00
H3       0.23181    0.56197    0.36424   1.00
H3       0.24626    0.44425    0.39991   1.00
H3       0.26048    0.51713    0.42042   1.00
C4       0.25020    0.74998    0.02085   1.00
C4       0.24980    0.75002    -0.02085   1.00
C3a      0.27485    0.72432    0.04254   1.00
C3       0.27908    0.76944    -0.04232   1.00
C3       0.22613    0.77557    0.04232   1.00
C3a      0.21994    0.73068    -0.04254   1.00
C2       0.25001    0.75008    0.10512   1.00
C2       0.25001    0.75008    -0.10512   1.00
C3       0.27431    0.72473    0.08405   1.00
C3       0.27920    0.76934    -0.08363   1.00
C3       0.22599    0.77550    0.08363   1.00
C3       0.22056    0.73096    -0.08405   1.00
C5       0.30166    0.69568    0.02228   1.00
H1       0.30223    0.78445    -0.02691   1.00
H1       0.29295    0.70504    0.10021   1.00
H1       0.30231    0.78439    -0.09901   1.00
H1       0.20693    0.79544    0.09901   1.00
H1       0.19791    0.71605    -0.10021   1.00
C5       0.18729    0.70893    -0.02228   1.00
H1       0.20702    0.79547    0.02691   1.00
H2       0.17426    0.68727    -0.04256   1.00
H2       0.19898    0.69190    0.00269   1.00
H2       0.30940    0.67162    0.04256   1.00
H2       0.28639    0.68178    -0.00269   1.00
N1       0.15713    0.73588    -0.00857   1.00
C6       0.13358    0.75765    -0.03073   1.00
C6       0.14714    0.74258    0.02846   1.00
C6       0.10857    0.77893    -0.00759   1.00
C6       0.11718    0.76934    0.03005   1.00
H3       0.13462    0.75840    -0.06197   1.00
H3       0.16096    0.72910    0.05300   1.00
H3       0.08649    0.79915    -0.01713   1.00
H3       0.10320    0.78062    0.05575   1.00
N1       0.33718    0.71502    0.00857   1.00
C6       0.34845    0.71927    -0.02846   1.00
C6       0.36509    0.73084    0.03073   1.00
C6       0.38372    0.73847    -0.03005   1.00
C6       0.39430    0.74584    0.00759   1.00
H3       0.33190    0.70930    -0.05300   1.00
H3       0.36424    0.73181    0.06197   1.00
H3       0.39991    0.74626    -0.05575   1.00
H3       0.42042    0.76048    0.01713   1.00
C4       0.75020    0.25002    0.47915   1.00
C4       0.74980    0.24998    0.52085   1.00
C3a      0.77485    0.27568    0.45746   1.00
C3       0.77908    0.23056    0.54232   1.00
C3       0.72613    0.22443    0.45768   1.00
C3a      0.71994    0.26932    0.54254   1.00
C2       0.75001    0.24992    0.39488   1.00
C2       0.75001    0.24992    0.60512   1.00
C3       0.77431    0.27527    0.41595   1.00
C3       0.77920    0.23066    0.58363   1.00
C3       0.72599    0.22450    0.41637   1.00
C3       0.72056    0.26904    0.58405   1.00
C5       0.80166    0.30432    0.47772   1.00
H1       0.80223    0.21555    0.52691   1.00
H1       0.79295    0.29496    0.39979   1.00
H1       0.80231    0.21561    0.59901   1.00
H1       0.70693    0.20456    0.40099   1.00
H1       0.69791    0.28395    0.60021   1.00
C5       0.68729    0.29107    0.52228   1.00
H1       0.70702    0.20453    0.47309   1.00
H2       0.67426    0.31273    0.54256   1.00
H2       0.69898    0.30810    0.49731   1.00
H2       0.80940    0.32838    0.45744   1.00
H2       0.78639    0.31822    0.50269   1.00
N1       0.65713    0.26412    0.50857   1.00
C6       0.63358    0.24235    0.53073   1.00
C6       0.64714    0.25742    0.47154   1.00
C6       0.60857    0.22107    0.50759   1.00
C6       0.61718    0.23066    0.46995   1.00
H3       0.63462    0.24160    0.56197   1.00
H3       0.66096    0.27090    0.44700   1.00
H3       0.58649    0.20085    0.51713   1.00
H3       0.60320    0.21938    0.44425   1.00
N1       0.83718    0.28498    0.49143   1.00
C6       0.84845    0.28073    0.52846   1.00
C6       0.86509    0.26916    0.46927   1.00
C6       0.88372    0.26153    0.53005   1.00
C6       0.89430    0.25416    0.49241   1.00
H3       0.83190    0.29070    0.55300   1.00
H3       0.86424    0.26819    0.43803   1.00
H3       0.89991    0.25374    0.55575   1.00
H3       0.92042    0.23952    0.48287   1.00
C4       0.75002    0.47915    0.25020   1.00
C4       0.74998    0.52085    0.24980   1.00
C3a      0.77568    0.45746    0.27485   1.00
C3       0.73056    0.54232    0.27908   1.00
C3       0.72443    0.45768    0.22613   1.00
C3a      0.76932    0.54254    0.21994   1.00
C2       0.74992    0.39488    0.25001   1.00
C2       0.74992    0.60512    0.25001   1.00
C3       0.77527    0.41595    0.27431   1.00
C3       0.73066    0.58363    0.27920   1.00
C3       0.72450    0.41637    0.22599   1.00
C3       0.76904    0.58405    0.22056   1.00
C5       0.80432    0.47772    0.30166   1.00
H1       0.71555    0.52691    0.30223   1.00
H1       0.79496    0.39979    0.29295   1.00
H1       0.71561    0.59901    0.30231   1.00
H1       0.70456    0.40099    0.20693   1.00
H1       0.78395    0.60021    0.19791   1.00
C5       0.79107    0.52228    0.18729   1.00
H1       0.70453    0.47309    0.20702   1.00
H2       0.81273    0.54256    0.17426   1.00
H2       0.80810    0.49731    0.19898   1.00
H2       0.82838    0.45744    0.30940   1.00
H2       0.81822    0.50269    0.28639   1.00
N1       0.76412    0.50857    0.15713   1.00
C6       0.74235    0.53073    0.13358   1.00
C6       0.75742    0.47154    0.14714   1.00
C6       0.72107    0.50759    0.10857   1.00
C6       0.73066    0.46995    0.11718   1.00
H3       0.74160    0.56197    0.13462   1.00
H3       0.77090    0.44700    0.16096   1.00
H3       0.70085    0.51713    0.08649   1.00
H3       0.71938    0.44425    0.10320   1.00
N1       0.78498    0.49143    0.33718   1.00
C6       0.78073    0.52846    0.34845   1.00
C6       0.76916    0.46927    0.36509   1.00
C6       0.76153    0.53005    0.38372   1.00
C6       0.75416    0.49241    0.39430   1.00
H3       0.79070    0.55300    0.33190   1.00
H3       0.76819    0.43803    0.36424   1.00
H3       0.75374    0.55575    0.39991   1.00
H3       0.73952    0.48287    0.42042   1.00
C4       0.52085    0.25020    0.24998   1.00
C4       0.47915    0.24980    0.25002   1.00
C3a      0.54254    0.27485    0.22432   1.00
C3       0.45768    0.27908    0.26944   1.00
C3       0.54232    0.22613    0.27557   1.00
C3a      0.45746    0.21994    0.23068   1.00
C2       0.60512    0.25001    0.25008   1.00
C2       0.39488    0.25001    0.25008   1.00
C3       0.58405    0.27431    0.22473   1.00
C3       0.41637    0.27920    0.26934   1.00
C3       0.58363    0.22599    0.27550   1.00
C3       0.41595    0.22056    0.23096   1.00
C5       0.52228    0.30166    0.19568   1.00
H1       0.47309    0.30223    0.28445   1.00
H1       0.60021    0.29295    0.20504   1.00
H1       0.40099    0.30231    0.28439   1.00
H1       0.59901    0.20693    0.29544   1.00
H1       0.39979    0.19791    0.21605   1.00
C5       0.47772    0.18729    0.20893   1.00
H1       0.52691    0.20702    0.29547   1.00
H2       0.45744    0.17426    0.18727   1.00
H2       0.50269    0.19898    0.19190   1.00
H2       0.54256    0.30940    0.17162   1.00
H2       0.49731    0.28639    0.18178   1.00
N1       0.49143    0.15713    0.23588   1.00
C6       0.46927    0.13358    0.25765   1.00
C6       0.52846    0.14714    0.24258   1.00
C6       0.49241    0.10857    0.27893   1.00
C6       0.53005    0.11718    0.26934   1.00
H3       0.43803    0.13462    0.25840   1.00
H3       0.55300    0.16096    0.22910   1.00
H3       0.48287    0.08649    0.29915   1.00
H3       0.55575    0.10320    0.28062   1.00
N1       0.50857    0.33718    0.21502   1.00
C6       0.47154    0.34845    0.21927   1.00
C6       0.53073    0.36509    0.23084   1.00
C6       0.46995    0.38372    0.23847   1.00
C6       0.50759    0.39430    0.24584   1.00
H3       0.44700    0.33190    0.20930   1.00
H3       0.56197    0.36424    0.23181   1.00
H3       0.44425    0.39991    0.24626   1.00
H3       0.51713    0.42042    0.26048   1.00
C4       0.97915    0.25020    0.25002   1.00
C4       1.02085    0.24980    0.24998   1.00
C3a      0.95746    0.27485    0.27568   1.00
C3       1.04232    0.27908    0.23056   1.00
C3       0.95768    0.22613    0.22443   1.00
C3a      1.04254    0.21994    0.26932   1.00
C2       0.89488    0.25001    0.24992   1.00
C2       1.10512    0.25001    0.24992   1.00
C3       0.91595    0.27431    0.27527   1.00
C3       1.08363    0.27920    0.23066   1.00
C3       0.91637    0.22599    0.22450   1.00
C3       1.08405    0.22056    0.26904   1.00
C5       0.97772    0.30166    0.30432   1.00
H1       1.02691    0.30223    0.21555   1.00
H1       0.89979    0.29295    0.29496   1.00
H1       1.09901    0.30231    0.21561   1.00
H1       0.90099    0.20693    0.20456   1.00
H1       1.10021    0.19791    0.28395   1.00
C5       1.02228    0.18729    0.29107   1.00
H1       0.97309    0.20702    0.20453   1.00
H2       1.04256    0.17426    0.31273   1.00
H2       0.99731    0.19898    0.30810   1.00
H2       0.95744    0.30940    0.32838   1.00
H2       1.00269    0.28639    0.31822   1.00
N1       1.00857    0.15713    0.26412   1.00
C6       1.03073    0.13358    0.24235   1.00
C6       0.97154    0.14714    0.25742   1.00
C6       1.00759    0.10857    0.22107   1.00
C6       0.96995    0.11718    0.23066   1.00
H3       1.06197    0.13462    0.24160   1.00
H3       0.94700    0.16096    0.27090   1.00
H3       1.01713    0.08649    0.20085   1.00
H3       0.94425    0.10320    0.21938   1.00
N1       0.99143    0.33718    0.28498   1.00
C6       1.02846    0.34845    0.28073   1.00
C6       0.96927    0.36509    0.26916   1.00
C6       1.03005    0.38372    0.26153   1.00
C6       0.99241    0.39430    0.25416   1.00
H3       1.05300    0.33190    0.29070   1.00
H3       0.93803    0.36424    0.26819   1.00
H3       1.05575    0.39991    0.25374   1.00
H3       0.98287    0.42042    0.23952   1.00
C4       0.74998    0.02085    0.25020   1.00
C4       0.75002    -0.02085   0.24980   1.00
C3a      0.72432    0.04254    0.27485   1.00
C3       0.76944    -0.04232   0.27908   1.00
C3       0.77557    0.04232    0.22613   1.00
C3a      0.73068    -0.04254   0.21994   1.00
C2       0.75008    0.10512    0.25001   1.00
C2       0.75008    -0.10512   0.25001   1.00
C3       0.72473    0.08405    0.27431   1.00
C3       0.76934    -0.08363   0.27920   1.00
C3       0.77550    0.08363    0.22599   1.00
C3       0.73096    -0.08405   0.22056   1.00
C5       0.69568    0.02228    0.30166   1.00
H1       0.78445    -0.02691   0.30223   1.00
H1       0.70504    0.10021    0.29295   1.00
H1       0.78439    -0.09901   0.30231   1.00
H1       0.79544    0.09901    0.20693   1.00
H1       0.71605    -0.10021   0.19791   1.00
C5       0.70893    -0.02228   0.18729   1.00
H1       0.79547    0.02691    0.20702   1.00
H2       0.68727    -0.04256   0.17426   1.00
H2       0.69190    0.00269    0.19898   1.00
H2       0.67162    0.04256    0.30940   1.00
H2       0.68178    -0.00269   0.28639   1.00
N1       0.73588    -0.00857   0.15713   1.00
C6       0.75765    -0.03073   0.13358   1.00
C6       0.74258    0.02846    0.14714   1.00
C6       0.77893    -0.00759   0.10857   1.00
C6       0.76934    0.03005    0.11718   1.00
H3       0.75840    -0.06197   0.13462   1.00
H3       0.72910    0.05300    0.16096   1.00
H3       0.79915    -0.01713   0.08649   1.00
H3       0.78062    0.05575    0.10320   1.00
N1       0.71502    0.00857    0.33718   1.00
C6       0.71927    -0.02846   0.34845   1.00
C6       0.73084    0.03073    0.36509   1.00
C6       0.73847    -0.03005   0.38372   1.00
C6       0.74584    0.00759    0.39430   1.00
H3       0.70930    -0.05300   0.33190   1.00
H3       0.73181    0.06197    0.36424   1.00
H3       0.74626    -0.05575   0.39991   1.00
H3       0.76048    0.01713    0.42042   1.00
C4       0.75020    0.24998    0.02085   1.00
C4       0.74980    0.25002    -0.02085   1.00
C3a      0.77485    0.22432    0.04254   1.00
C3       0.77908    0.26944    -0.04232   1.00
C3       0.72613    0.27557    0.04232   1.00
C3a      0.71994    0.23068    -0.04254   1.00
C2       0.75001    0.25008    0.10512   1.00
C2       0.75001    0.25008    -0.10512   1.00
C3       0.77431    0.22473    0.08405   1.00
C3       0.77920    0.26934    -0.08363   1.00
C3       0.72599    0.27550    0.08363   1.00
C3       0.72056    0.23096    -0.08405   1.00
C5       0.80166    0.19568    0.02228   1.00
H1       0.80223    0.28445    -0.02691   1.00
H1       0.79295    0.20504    0.10021   1.00
H1       0.80231    0.28439    -0.09901   1.00
H1       0.70693    0.29544    0.09901   1.00
H1       0.69791    0.21605    -0.10021   1.00
C5       0.68729    0.20893    -0.02228   1.00
H1       0.70702    0.29547    0.02691   1.00
H2       0.67426    0.18727    -0.04256   1.00
H2       0.69898    0.19190    0.00269   1.00
H2       0.80940    0.17162    0.04256   1.00
H2       0.78639    0.18178    -0.00269   1.00
N1       0.65713    0.23588    -0.00857   1.00
C6       0.63358    0.25765    -0.03073   1.00
C6       0.64714    0.24258    0.02846   1.00
C6       0.60857    0.27893    -0.00759   1.00
C6       0.61718    0.26934    0.03005   1.00
H3       0.63462    0.25840    -0.06197   1.00
H3       0.66096    0.22910    0.05300   1.00
H3       0.58649    0.29915    -0.01713   1.00
H3       0.60320    0.28062    0.05575   1.00
N1       0.83718    0.21502    0.00857   1.00
C6       0.84845    0.21927    -0.02846   1.00
C6       0.86509    0.23084    0.03073   1.00
C6       0.88372    0.23847    -0.03005   1.00
C6       0.89430    0.24584    0.00759   1.00
H3       0.83190    0.20930    -0.05300   1.00
H3       0.86424    0.23181    0.06197   1.00
H3       0.89991    0.24626    -0.05575   1.00
H3       0.92042    0.26048    0.01713   1.00
