data_IRMOF10_SG202_Ligand4_label_q.

_audit_creation_method             'generated by an auxiliary program of Tobunporous'

_symmetry_space_group_name_H-M     'P 1'
_symmetry_Int_Tables_number        1
_symmetry_cell_setting             triclinic

_cell_length_a                    34.2800
_cell_length_b                    34.2800
_cell_length_c                    34.2800
_cell_angle_alpha                 90.0000
_cell_angle_beta                  90.0000
_cell_angle_gamma                 90.0000

loop_
_atom_site_label
_atom_site_fract_x
_atom_site_fract_y
_atom_site_fract_z
_atom_site_occupancy
O1       0.75000    0.75000    0.75000   1.00
Zn1      0.71720    0.78280    0.78280   1.00
Zn1      0.78280    0.71720    0.78280   1.00
Zn1      0.78280    0.78280    0.71720   1.00
Zn1      0.71720    0.71720    0.71720   1.00
O2       0.72650    0.77350    0.83820   1.00
O2       0.72650    0.83820    0.77350   1.00
O2       0.66180    0.77350    0.77350   1.00
O2       0.77350    0.72650    0.83820   1.00
O2       0.83820    0.72650    0.77350   1.00
O2       0.77350    0.66180    0.77350   1.00
O2       0.77350    0.83820    0.72650   1.00
O2       0.83820    0.77350    0.72650   1.00
O2       0.77350    0.77350    0.66180   1.00
O2       0.66180    0.72650    0.72650   1.00
O2       0.72650    0.66180    0.72650   1.00
O2       0.72650    0.72650    0.66180   1.00
C1       0.75000    0.75000    0.85520   1.00
C1       0.75000    0.85520    0.75000   1.00
C1       0.64480    0.75000    0.75000   1.00
C1       0.85520    0.75000    0.75000   1.00
C1       0.75000    0.64480    0.75000   1.00
C1       0.75000    0.75000    0.64480   1.00
O1       0.25000    0.25000    0.75000   1.00
Zn1      0.21720    0.28280    0.78280   1.00
Zn1      0.28280    0.21720    0.78280   1.00
Zn1      0.28280    0.28280    0.71720   1.00
Zn1      0.21720    0.21720    0.71720   1.00
O2       0.22650    0.27350    0.83820   1.00
O2       0.22650    0.33820    0.77350   1.00
O2       0.16180    0.27350    0.77350   1.00
O2       0.27350    0.22650    0.83820   1.00
O2       0.33820    0.22650    0.77350   1.00
O2       0.27350    0.16180    0.77350   1.00
O2       0.27350    0.33820    0.72650   1.00
O2       0.33820    0.27350    0.72650   1.00
O2       0.27350    0.27350    0.66180   1.00
O2       0.16180    0.22650    0.72650   1.00
O2       0.22650    0.16180    0.72650   1.00
O2       0.22650    0.22650    0.66180   1.00
C1       0.25000    0.25000    0.85520   1.00
C1       0.25000    0.35520    0.75000   1.00
C1       0.14480    0.25000    0.75000   1.00
C1       0.35520    0.25000    0.75000   1.00
C1       0.25000    0.14480    0.75000   1.00
C1       0.25000    0.25000    0.64480   1.00
O1       0.25000    0.75000    0.25000   1.00
Zn1      0.21720    0.78280    0.28280   1.00
Zn1      0.28280    0.71720    0.28280   1.00
Zn1      0.28280    0.78280    0.21720   1.00
Zn1      0.21720    0.71720    0.21720   1.00
O2       0.22650    0.77350    0.33820   1.00
O2       0.22650    0.83820    0.27350   1.00
O2       0.16180    0.77350    0.27350   1.00
O2       0.27350    0.72650    0.33820   1.00
O2       0.33820    0.72650    0.27350   1.00
O2       0.27350    0.66180    0.27350   1.00
O2       0.27350    0.83820    0.22650   1.00
O2       0.33820    0.77350    0.22650   1.00
O2       0.27350    0.77350    0.16180   1.00
O2       0.16180    0.72650    0.22650   1.00
O2       0.22650    0.66180    0.22650   1.00
O2       0.22650    0.72650    0.16180   1.00
C1       0.25000    0.75000    0.35520   1.00
C1       0.25000    0.85520    0.25000   1.00
C1       0.14480    0.75000    0.25000   1.00
C1       0.35520    0.75000    0.25000   1.00
C1       0.25000    0.64480    0.25000   1.00
C1       0.25000    0.75000    0.14480   1.00
O1       0.75000    0.25000    0.25000   1.00
Zn1      0.71720    0.28280    0.28280   1.00
Zn1      0.78280    0.21720    0.28280   1.00
Zn1      0.78280    0.28280    0.21720   1.00
Zn1      0.71720    0.21720    0.21720   1.00
O2       0.72650    0.27350    0.33820   1.00
O2       0.72650    0.33820    0.27350   1.00
O2       0.66180    0.27350    0.27350   1.00
O2       0.77350    0.22650    0.33820   1.00
O2       0.83820    0.22650    0.27350   1.00
O2       0.77350    0.16180    0.27350   1.00
O2       0.77350    0.33820    0.22650   1.00
O2       0.83820    0.27350    0.22650   1.00
O2       0.77350    0.27350    0.16180   1.00
O2       0.66180    0.22650    0.22650   1.00
O2       0.72650    0.16180    0.22650   1.00
O2       0.72650    0.22650    0.16180   1.00
C1       0.75000    0.25000    0.35520   1.00
C1       0.75000    0.35520    0.25000   1.00
C1       0.64480    0.25000    0.25000   1.00
C1       0.85520    0.25000    0.25000   1.00
C1       0.75000    0.14480    0.25000   1.00
C1       0.75000    0.25000    0.14480   1.00
O1       0.25000    0.25000    0.25000   1.00
Zn1      0.28280    0.21720    0.21720   1.00
Zn1      0.21720    0.28280    0.21720   1.00
Zn1      0.21720    0.21720    0.28280   1.00
Zn1      0.28280    0.28280    0.28280   1.00
O2       0.27350    0.22650    0.16180   1.00
O2       0.27350    0.16180    0.22650   1.00
O2       0.33820    0.22650    0.22650   1.00
O2       0.22650    0.27350    0.16180   1.00
O2       0.16180    0.27350    0.22650   1.00
O2       0.22650    0.33820    0.22650   1.00
O2       0.22650    0.16180    0.27350   1.00
O2       0.16180    0.22650    0.27350   1.00
O2       0.22650    0.22650    0.33820   1.00
O2       0.33820    0.27350    0.27350   1.00
O2       0.27350    0.33820    0.27350   1.00
O2       0.27350    0.27350    0.33820   1.00
C1       0.25000    0.25000    0.14480   1.00
C1       0.25000    0.14480    0.25000   1.00
C1       0.35520    0.25000    0.25000   1.00
C1       0.14480    0.25000    0.25000   1.00
C1       0.25000    0.35520    0.25000   1.00
C1       0.25000    0.25000    0.35520   1.00
O1       0.75000    0.75000    0.25000   1.00
Zn1      0.78280    0.71720    0.21720   1.00
Zn1      0.71720    0.78280    0.21720   1.00
Zn1      0.71720    0.71720    0.28280   1.00
Zn1      0.78280    0.78280    0.28280   1.00
O2       0.77350    0.72650    0.16180   1.00
O2       0.77350    0.66180    0.22650   1.00
O2       0.83820    0.72650    0.22650   1.00
O2       0.72650    0.77350    0.16180   1.00
O2       0.66180    0.77350    0.22650   1.00
O2       0.72650    0.83820    0.22650   1.00
O2       0.72650    0.66180    0.27350   1.00
O2       0.66180    0.72650    0.27350   1.00
O2       0.72650    0.72650    0.33820   1.00
O2       0.83820    0.77350    0.27350   1.00
O2       0.77350    0.83820    0.27350   1.00
O2       0.77350    0.77350    0.33820   1.00
C1       0.75000    0.75000    0.14480   1.00
C1       0.75000    0.64480    0.25000   1.00
C1       0.85520    0.75000    0.25000   1.00
C1       0.64480    0.75000    0.25000   1.00
C1       0.75000    0.85520    0.25000   1.00
C1       0.75000    0.75000    0.35520   1.00
O1       0.75000    0.25000    0.75000   1.00
Zn1      0.78280    0.21720    0.71720   1.00
Zn1      0.71720    0.28280    0.71720   1.00
Zn1      0.71720    0.21720    0.78280   1.00
Zn1      0.78280    0.28280    0.78280   1.00
O2       0.77350    0.22650    0.66180   1.00
O2       0.77350    0.16180    0.72650   1.00
O2       0.83820    0.22650    0.72650   1.00
O2       0.72650    0.27350    0.66180   1.00
O2       0.66180    0.27350    0.72650   1.00
O2       0.72650    0.33820    0.72650   1.00
O2       0.72650    0.16180    0.77350   1.00
O2       0.66180    0.22650    0.77350   1.00
O2       0.72650    0.22650    0.83820   1.00
O2       0.83820    0.27350    0.77350   1.00
O2       0.77350    0.33820    0.77350   1.00
O2       0.77350    0.27350    0.83820   1.00
C1       0.75000    0.25000    0.64480   1.00
C1       0.75000    0.14480    0.75000   1.00
C1       0.85520    0.25000    0.75000   1.00
C1       0.64480    0.25000    0.75000   1.00
C1       0.75000    0.35520    0.75000   1.00
C1       0.75000    0.25000    0.85520   1.00
O1       0.25000    0.75000    0.75000   1.00
Zn1      0.28280    0.71720    0.71720   1.00
Zn1      0.21720    0.78280    0.71720   1.00
Zn1      0.21720    0.71720    0.78280   1.00
Zn1      0.28280    0.78280    0.78280   1.00
O2       0.27350    0.72650    0.66180   1.00
O2       0.27350    0.66180    0.72650   1.00
O2       0.33820    0.72650    0.72650   1.00
O2       0.22650    0.77350    0.66180   1.00
O2       0.16180    0.77350    0.72650   1.00
O2       0.22650    0.83820    0.72650   1.00
O2       0.22650    0.66180    0.77350   1.00
O2       0.16180    0.72650    0.77350   1.00
O2       0.22650    0.72650    0.83820   1.00
O2       0.33820    0.77350    0.77350   1.00
O2       0.27350    0.83820    0.77350   1.00
O2       0.27350    0.77350    0.83820   1.00
C1       0.25000    0.75000    0.64480   1.00
C1       0.25000    0.64480    0.75000   1.00
C1       0.35520    0.75000    0.75000   1.00
C1       0.14480    0.75000    0.75000   1.00
C1       0.25000    0.85520    0.75000   1.00
C1       0.25000    0.75000    0.85520   1.00
C4       0.75010    0.75479    0.98025   1.00
C4       0.75137    0.75568    1.02191   1.00
C3       0.71453    0.75801    0.95897   1.00
C3       0.71782    0.76395    1.04504   1.00
C3       0.78548    0.75047    0.95854   1.00
C3       0.78733    0.74816    1.04170   1.00
C2       0.74770    0.75491    0.89595   1.00
C2       0.75346    0.75562    1.10622   1.00
C3       0.71330    0.75828    0.91811   1.00
C3       0.71871    0.76374    1.08591   1.00
C3       0.78300    0.75109    0.91696   1.00
C3       0.78695    0.74801    1.08336   1.00
H1       0.68812    0.75990    0.97237   1.00
H1       0.69156    0.77081    1.03306   1.00
C5       0.82201    0.74546    0.97835   1.00
C5       0.82243    0.74127    1.01998   1.00
H1       0.68672    0.76085    0.90451   1.00
H1       0.69347    0.76978    1.10091   1.00
H1       0.80755    0.74837    0.90052   1.00
H1       0.81188    0.74251    1.09848   1.00
C6       0.85961    0.74510    0.95515   1.00
C6       0.85929    0.72925    1.04119   1.00
H2       0.85865    0.76833    0.93345   1.00
H2       0.85200    0.70740    1.06310   1.00
H2       0.88440    0.75391    0.97286   1.00
H2       0.87894    0.71306    1.02228   1.00
C6       0.86864    0.70452    0.93606   1.00
C6       0.88192    0.76458    1.05942   1.00
H2       0.84206    0.69275    0.92292   1.00
H2       0.86130    0.78419    1.07383   1.00
C6       0.90171    0.70287    0.90459   1.00
C6       0.91535    0.75517    1.08911   1.00
H2       0.87611    0.68423    0.95949   1.00
H2       0.89432    0.78156    1.03546   1.00
C6       0.89054    0.72607    0.86735   1.00
C6       0.89924    0.73651    1.12708   1.00
C6       0.94090    0.71858    0.92074   1.00
C6       0.94646    0.72778    1.07107   1.00
C6       0.90792    0.65966    0.89245   1.00
C6       0.93581    0.79396    1.10054   1.00
H2       0.86265    0.71609    0.85558   1.00
H2       0.87672    0.75486    1.14020   1.00
H2       0.88806    0.75718    0.87330   1.00
H2       0.88653    0.70792    1.12154   1.00
H2       0.91253    0.72252    0.84459   1.00
H2       0.92235    0.73257    1.14863   1.00
H2       0.96437    0.71473    0.89955   1.00
H2       0.97099    0.72366    1.09098   1.00
H2       0.93891    0.74965    0.92725   1.00
H2       0.93420    0.69908    1.06494   1.00
H2       0.94904    0.70328    0.94745   1.00
H2       0.95770    0.73986    1.04385   1.00
H2       0.88114    0.64725    0.88042   1.00
H2       0.91515    0.81425    1.11383   1.00
H2       0.93063    0.65702    0.87025   1.00
H2       0.95928    0.78893    1.12149   1.00
H2       0.91666    0.64189    0.91739   1.00
H2       0.94851    0.80817    1.07502   1.00
C4       0.75479    0.98025    0.75010   1.00
C4       0.75568    1.02191    0.75137   1.00
C3       0.75801    0.95897    0.71453   1.00
C3       0.76395    1.04504    0.71782   1.00
C3       0.75047    0.95854    0.78548   1.00
C3       0.74816    1.04170    0.78733   1.00
C2       0.75491    0.89595    0.74770   1.00
C2       0.75562    1.10622    0.75346   1.00
C3       0.75828    0.91811    0.71330   1.00
C3       0.76374    1.08591    0.71871   1.00
C3       0.75109    0.91696    0.78300   1.00
C3       0.74801    1.08336    0.78695   1.00
H1       0.75990    0.97237    0.68812   1.00
H1       0.77081    1.03306    0.69156   1.00
C5       0.74546    0.97835    0.82201   1.00
C5       0.74127    1.01998    0.82243   1.00
H1       0.76085    0.90451    0.68672   1.00
H1       0.76978    1.10091    0.69347   1.00
H1       0.74837    0.90052    0.80755   1.00
H1       0.74251    1.09848    0.81188   1.00
C6       0.74510    0.95515    0.85961   1.00
C6       0.72925    1.04119    0.85929   1.00
H2       0.76833    0.93345    0.85865   1.00
H2       0.70740    1.06310    0.85200   1.00
H2       0.75391    0.97286    0.88440   1.00
H2       0.71306    1.02228    0.87894   1.00
C6       0.70452    0.93606    0.86864   1.00
C6       0.76458    1.05942    0.88192   1.00
H2       0.69275    0.92292    0.84206   1.00
H2       0.78419    1.07383    0.86130   1.00
C6       0.70287    0.90459    0.90171   1.00
C6       0.75517    1.08911    0.91535   1.00
H2       0.68423    0.95949    0.87611   1.00
H2       0.78156    1.03546    0.89432   1.00
C6       0.72607    0.86735    0.89054   1.00
C6       0.73651    1.12708    0.89924   1.00
C6       0.71858    0.92074    0.94090   1.00
C6       0.72778    1.07107    0.94646   1.00
C6       0.65966    0.89245    0.90792   1.00
C6       0.79396    1.10054    0.93581   1.00
H2       0.71609    0.85558    0.86265   1.00
H2       0.75486    1.14020    0.87672   1.00
H2       0.75718    0.87330    0.88806   1.00
H2       0.70792    1.12154    0.88653   1.00
H2       0.72252    0.84459    0.91253   1.00
H2       0.73257    1.14863    0.92235   1.00
H2       0.71473    0.89955    0.96437   1.00
H2       0.72366    1.09098    0.97099   1.00
H2       0.74965    0.92725    0.93891   1.00
H2       0.69908    1.06494    0.93420   1.00
H2       0.70328    0.94745    0.94904   1.00
H2       0.73986    1.04385    0.95770   1.00
H2       0.64725    0.88042    0.88114   1.00
H2       0.81425    1.11383    0.91515   1.00
H2       0.65702    0.87025    0.93063   1.00
H2       0.78893    1.12149    0.95928   1.00
H2       0.64189    0.91739    0.91666   1.00
H2       0.80817    1.07502    0.94851   1.00
C4       0.51975    0.75010    0.74521   1.00
C4       0.47809    0.75137    0.74432   1.00
C3       0.54103    0.71453    0.74199   1.00
C3       0.45496    0.71782    0.73605   1.00
C3       0.54146    0.78548    0.74953   1.00
C3       0.45830    0.78733    0.75184   1.00
C2       0.60405    0.74770    0.74509   1.00
C2       0.39378    0.75346    0.74438   1.00
C3       0.58189    0.71330    0.74172   1.00
C3       0.41409    0.71871    0.73626   1.00
C3       0.58304    0.78300    0.74891   1.00
C3       0.41664    0.78695    0.75199   1.00
H1       0.52763    0.68812    0.74010   1.00
H1       0.46694    0.69156    0.72919   1.00
C5       0.52165    0.82201    0.75454   1.00
C5       0.48002    0.82243    0.75873   1.00
H1       0.59549    0.68672    0.73915   1.00
H1       0.39909    0.69347    0.73022   1.00
H1       0.59948    0.80755    0.75163   1.00
H1       0.40152    0.81188    0.75749   1.00
C6       0.54485    0.85961    0.75490   1.00
C6       0.45881    0.85929    0.77075   1.00
H2       0.56655    0.85865    0.73167   1.00
H2       0.43690    0.85200    0.79260   1.00
H2       0.52714    0.88440    0.74609   1.00
H2       0.47772    0.87894    0.78694   1.00
C6       0.56394    0.86864    0.79548   1.00
C6       0.44058    0.88192    0.73542   1.00
H2       0.57708    0.84206    0.80725   1.00
H2       0.42617    0.86130    0.71581   1.00
C6       0.59541    0.90171    0.79713   1.00
C6       0.41089    0.91535    0.74483   1.00
H2       0.54051    0.87611    0.81577   1.00
H2       0.46454    0.89432    0.71844   1.00
C6       0.63265    0.89054    0.77393   1.00
C6       0.37292    0.89924    0.76349   1.00
C6       0.57926    0.94090    0.78142   1.00
C6       0.42893    0.94646    0.77222   1.00
C6       0.60755    0.90792    0.84034   1.00
C6       0.39946    0.93581    0.70604   1.00
H2       0.64442    0.86265    0.78391   1.00
H2       0.35980    0.87672    0.74514   1.00
H2       0.62670    0.88806    0.74282   1.00
H2       0.37846    0.88653    0.79208   1.00
H2       0.65541    0.91253    0.77748   1.00
H2       0.35137    0.92235    0.76743   1.00
H2       0.60045    0.96437    0.78527   1.00
H2       0.40902    0.97099    0.77634   1.00
H2       0.57275    0.93891    0.75035   1.00
H2       0.43506    0.93420    0.80092   1.00
H2       0.55255    0.94904    0.79672   1.00
H2       0.45615    0.95770    0.76014   1.00
H2       0.61958    0.88114    0.85275   1.00
H2       0.38617    0.91515    0.68575   1.00
H2       0.62975    0.93063    0.84298   1.00
H2       0.37851    0.95928    0.71107   1.00
H2       0.58261    0.91666    0.85811   1.00
H2       0.42498    0.94851    0.69183   1.00
C4       0.98025    0.75010    0.75479   1.00
C4       1.02191    0.75137    0.75568   1.00
C3       0.95897    0.71453    0.75801   1.00
C3       1.04504    0.71782    0.76395   1.00
C3       0.95854    0.78548    0.75047   1.00
C3       1.04170    0.78733    0.74816   1.00
C2       0.89595    0.74770    0.75491   1.00
C2       1.10622    0.75346    0.75562   1.00
C3       0.91811    0.71330    0.75828   1.00
C3       1.08591    0.71871    0.76374   1.00
C3       0.91696    0.78300    0.75109   1.00
C3       1.08336    0.78695    0.74801   1.00
H1       0.97237    0.68812    0.75990   1.00
H1       1.03306    0.69156    0.77081   1.00
C5       0.97835    0.82201    0.74546   1.00
C5       1.01998    0.82243    0.74127   1.00
H1       0.90451    0.68672    0.76085   1.00
H1       1.10091    0.69347    0.76978   1.00
H1       0.90052    0.80755    0.74837   1.00
H1       1.09848    0.81188    0.74251   1.00
C6       0.95515    0.85961    0.74510   1.00
C6       1.04119    0.85929    0.72925   1.00
H2       0.93345    0.85865    0.76833   1.00
H2       1.06310    0.85200    0.70740   1.00
H2       0.97286    0.88440    0.75391   1.00
H2       1.02228    0.87894    0.71306   1.00
C6       0.93606    0.86864    0.70452   1.00
C6       1.05942    0.88192    0.76458   1.00
H2       0.92292    0.84206    0.69275   1.00
H2       1.07383    0.86130    0.78419   1.00
C6       0.90459    0.90171    0.70287   1.00
C6       1.08911    0.91535    0.75517   1.00
H2       0.95949    0.87611    0.68423   1.00
H2       1.03546    0.89432    0.78156   1.00
C6       0.86735    0.89054    0.72607   1.00
C6       1.12708    0.89924    0.73651   1.00
C6       0.92074    0.94090    0.71858   1.00
C6       1.07107    0.94646    0.72778   1.00
C6       0.89245    0.90792    0.65966   1.00
C6       1.10054    0.93581    0.79396   1.00
H2       0.85558    0.86265    0.71609   1.00
H2       1.14020    0.87672    0.75486   1.00
H2       0.87330    0.88806    0.75718   1.00
H2       1.12154    0.88653    0.70792   1.00
H2       0.84459    0.91253    0.72252   1.00
H2       1.14863    0.92235    0.73257   1.00
H2       0.89955    0.96437    0.71473   1.00
H2       1.09098    0.97099    0.72366   1.00
H2       0.92725    0.93891    0.74965   1.00
H2       1.06494    0.93420    0.69908   1.00
H2       0.94745    0.94904    0.70328   1.00
H2       1.04385    0.95770    0.73986   1.00
H2       0.88042    0.88114    0.64725   1.00
H2       1.11383    0.91515    0.81425   1.00
H2       0.87025    0.93063    0.65702   1.00
H2       1.12149    0.95928    0.78893   1.00
H2       0.91739    0.91666    0.64189   1.00
H2       1.07502    0.94851    0.80817   1.00
C4       0.74521    0.51975    0.75010   1.00
C4       0.74432    0.47809    0.75137   1.00
C3       0.74199    0.54103    0.71453   1.00
C3       0.73605    0.45496    0.71782   1.00
C3       0.74953    0.54146    0.78548   1.00
C3       0.75184    0.45830    0.78733   1.00
C2       0.74509    0.60405    0.74770   1.00
C2       0.74438    0.39378    0.75346   1.00
C3       0.74172    0.58189    0.71330   1.00
C3       0.73626    0.41409    0.71871   1.00
C3       0.74891    0.58304    0.78300   1.00
C3       0.75199    0.41664    0.78695   1.00
H1       0.74010    0.52763    0.68812   1.00
H1       0.72919    0.46694    0.69156   1.00
C5       0.75454    0.52165    0.82201   1.00
C5       0.75873    0.48002    0.82243   1.00
H1       0.73915    0.59549    0.68672   1.00
H1       0.73022    0.39909    0.69347   1.00
H1       0.75163    0.59948    0.80755   1.00
H1       0.75749    0.40152    0.81188   1.00
C6       0.75490    0.54485    0.85961   1.00
C6       0.77075    0.45881    0.85929   1.00
H2       0.73167    0.56655    0.85865   1.00
H2       0.79260    0.43690    0.85200   1.00
H2       0.74609    0.52714    0.88440   1.00
H2       0.78694    0.47772    0.87894   1.00
C6       0.79548    0.56394    0.86864   1.00
C6       0.73542    0.44058    0.88192   1.00
H2       0.80725    0.57708    0.84206   1.00
H2       0.71581    0.42617    0.86130   1.00
C6       0.79713    0.59541    0.90171   1.00
C6       0.74483    0.41089    0.91535   1.00
H2       0.81577    0.54051    0.87611   1.00
H2       0.71844    0.46454    0.89432   1.00
C6       0.77393    0.63265    0.89054   1.00
C6       0.76349    0.37292    0.89924   1.00
C6       0.78142    0.57926    0.94090   1.00
C6       0.77222    0.42893    0.94646   1.00
C6       0.84034    0.60755    0.90792   1.00
C6       0.70604    0.39946    0.93581   1.00
H2       0.78391    0.64442    0.86265   1.00
H2       0.74514    0.35980    0.87672   1.00
H2       0.74282    0.62670    0.88806   1.00
H2       0.79208    0.37846    0.88653   1.00
H2       0.77748    0.65541    0.91253   1.00
H2       0.76743    0.35137    0.92235   1.00
H2       0.78527    0.60045    0.96437   1.00
H2       0.77634    0.40902    0.97099   1.00
H2       0.75035    0.57275    0.93891   1.00
H2       0.80092    0.43506    0.93420   1.00
H2       0.79672    0.55255    0.94904   1.00
H2       0.76014    0.45615    0.95770   1.00
H2       0.85275    0.61958    0.88114   1.00
H2       0.68575    0.38617    0.91515   1.00
H2       0.84298    0.62975    0.93063   1.00
H2       0.71107    0.37851    0.95928   1.00
H2       0.85811    0.58261    0.91666   1.00
H2       0.69183    0.42498    0.94851   1.00
C4       0.75010    0.74521    0.51975   1.00
C4       0.75137    0.74432    0.47809   1.00
C3       0.71453    0.74199    0.54103   1.00
C3       0.71782    0.73605    0.45496   1.00
C3       0.78548    0.74953    0.54146   1.00
C3       0.78733    0.75184    0.45830   1.00
C2       0.74770    0.74509    0.60405   1.00
C2       0.75346    0.74438    0.39378   1.00
C3       0.71330    0.74172    0.58189   1.00
C3       0.71871    0.73626    0.41409   1.00
C3       0.78300    0.74891    0.58304   1.00
C3       0.78695    0.75199    0.41664   1.00
H1       0.68812    0.74010    0.52763   1.00
H1       0.69156    0.72919    0.46694   1.00
C5       0.82201    0.75454    0.52165   1.00
C5       0.82243    0.75873    0.48002   1.00
H1       0.68672    0.73915    0.59549   1.00
H1       0.69347    0.73022    0.39909   1.00
H1       0.80755    0.75163    0.59948   1.00
H1       0.81188    0.75749    0.40152   1.00
C6       0.85961    0.75490    0.54485   1.00
C6       0.85929    0.77075    0.45881   1.00
H2       0.85865    0.73167    0.56655   1.00
H2       0.85200    0.79260    0.43690   1.00
H2       0.88440    0.74609    0.52714   1.00
H2       0.87894    0.78694    0.47772   1.00
C6       0.86864    0.79548    0.56394   1.00
C6       0.88192    0.73542    0.44058   1.00
H2       0.84206    0.80725    0.57708   1.00
H2       0.86130    0.71581    0.42617   1.00
C6       0.90171    0.79713    0.59541   1.00
C6       0.91535    0.74483    0.41089   1.00
H2       0.87611    0.81577    0.54051   1.00
H2       0.89432    0.71844    0.46454   1.00
C6       0.89054    0.77393    0.63265   1.00
C6       0.89924    0.76349    0.37292   1.00
C6       0.94090    0.78142    0.57926   1.00
C6       0.94646    0.77222    0.42893   1.00
C6       0.90792    0.84034    0.60755   1.00
C6       0.93581    0.70604    0.39946   1.00
H2       0.86265    0.78391    0.64442   1.00
H2       0.87672    0.74514    0.35980   1.00
H2       0.88806    0.74282    0.62670   1.00
H2       0.88653    0.79208    0.37846   1.00
H2       0.91253    0.77748    0.65541   1.00
H2       0.92235    0.76743    0.35137   1.00
H2       0.96437    0.78527    0.60045   1.00
H2       0.97099    0.77634    0.40902   1.00
H2       0.93891    0.75035    0.57275   1.00
H2       0.93420    0.80092    0.43506   1.00
H2       0.94904    0.79672    0.55255   1.00
H2       0.95770    0.76014    0.45615   1.00
H2       0.88114    0.85275    0.61958   1.00
H2       0.91515    0.68575    0.38617   1.00
H2       0.93063    0.84298    0.62975   1.00
H2       0.95928    0.71107    0.37851   1.00
H2       0.91666    0.85811    0.58261   1.00
H2       0.94851    0.69183    0.42498   1.00
C4       0.25010    0.25479    0.98025   1.00
C4       0.25137    0.25568    1.02191   1.00
C3       0.21453    0.25801    0.95897   1.00
C3       0.21782    0.26395    1.04504   1.00
C3       0.28548    0.25047    0.95854   1.00
C3       0.28733    0.24816    1.04170   1.00
C2       0.24770    0.25491    0.89595   1.00
C2       0.25346    0.25562    1.10622   1.00
C3       0.21330    0.25828    0.91811   1.00
C3       0.21871    0.26374    1.08591   1.00
C3       0.28300    0.25109    0.91696   1.00
C3       0.28695    0.24801    1.08336   1.00
H1       0.18812    0.25990    0.97237   1.00
H1       0.19156    0.27081    1.03306   1.00
C5       0.32201    0.24546    0.97835   1.00
C5       0.32243    0.24127    1.01998   1.00
H1       0.18672    0.26085    0.90451   1.00
H1       0.19347    0.26978    1.10091   1.00
H1       0.30755    0.24837    0.90052   1.00
H1       0.31188    0.24251    1.09848   1.00
C6       0.35961    0.24510    0.95515   1.00
C6       0.35929    0.22925    1.04119   1.00
H2       0.35865    0.26833    0.93345   1.00
H2       0.35200    0.20740    1.06310   1.00
H2       0.38440    0.25391    0.97286   1.00
H2       0.37894    0.21306    1.02228   1.00
C6       0.36864    0.20452    0.93606   1.00
C6       0.38192    0.26458    1.05942   1.00
H2       0.34206    0.19275    0.92292   1.00
H2       0.36130    0.28419    1.07383   1.00
C6       0.40171    0.20287    0.90459   1.00
C6       0.41535    0.25517    1.08911   1.00
H2       0.37611    0.18423    0.95949   1.00
H2       0.39432    0.28156    1.03546   1.00
C6       0.39054    0.22607    0.86735   1.00
C6       0.39924    0.23651    1.12708   1.00
C6       0.44090    0.21858    0.92074   1.00
C6       0.44646    0.22778    1.07107   1.00
C6       0.40792    0.15966    0.89245   1.00
C6       0.43581    0.29396    1.10054   1.00
H2       0.36265    0.21609    0.85558   1.00
H2       0.37672    0.25486    1.14020   1.00
H2       0.38806    0.25718    0.87330   1.00
H2       0.38653    0.20792    1.12154   1.00
H2       0.41253    0.22252    0.84459   1.00
H2       0.42235    0.23257    1.14863   1.00
H2       0.46437    0.21473    0.89955   1.00
H2       0.47099    0.22366    1.09098   1.00
H2       0.43891    0.24965    0.92725   1.00
H2       0.43420    0.19908    1.06494   1.00
H2       0.44904    0.20328    0.94745   1.00
H2       0.45770    0.23986    1.04385   1.00
H2       0.38114    0.14725    0.88042   1.00
H2       0.41515    0.31425    1.11383   1.00
H2       0.43063    0.15702    0.87025   1.00
H2       0.45928    0.28893    1.12149   1.00
H2       0.41666    0.14189    0.91739   1.00
H2       0.44851    0.30817    1.07502   1.00
C4       0.25479    0.48025    0.75010   1.00
C4       0.25568    0.52191    0.75137   1.00
C3       0.25801    0.45897    0.71453   1.00
C3       0.26395    0.54504    0.71782   1.00
C3       0.25047    0.45854    0.78548   1.00
C3       0.24816    0.54170    0.78733   1.00
C2       0.25491    0.39595    0.74770   1.00
C2       0.25562    0.60622    0.75346   1.00
C3       0.25828    0.41811    0.71330   1.00
C3       0.26374    0.58591    0.71871   1.00
C3       0.25109    0.41696    0.78300   1.00
C3       0.24801    0.58336    0.78695   1.00
H1       0.25990    0.47237    0.68812   1.00
H1       0.27081    0.53306    0.69156   1.00
C5       0.24546    0.47835    0.82201   1.00
C5       0.24127    0.51998    0.82243   1.00
H1       0.26085    0.40451    0.68672   1.00
H1       0.26978    0.60091    0.69347   1.00
H1       0.24837    0.40052    0.80755   1.00
H1       0.24251    0.59848    0.81188   1.00
C6       0.24510    0.45515    0.85961   1.00
C6       0.22925    0.54119    0.85929   1.00
H2       0.26833    0.43345    0.85865   1.00
H2       0.20740    0.56310    0.85200   1.00
H2       0.25391    0.47286    0.88440   1.00
H2       0.21306    0.52228    0.87894   1.00
C6       0.20452    0.43606    0.86864   1.00
C6       0.26458    0.55942    0.88192   1.00
H2       0.19275    0.42292    0.84206   1.00
H2       0.28419    0.57383    0.86130   1.00
C6       0.20287    0.40459    0.90171   1.00
C6       0.25517    0.58911    0.91535   1.00
H2       0.18423    0.45949    0.87611   1.00
H2       0.28156    0.53546    0.89432   1.00
C6       0.22607    0.36735    0.89054   1.00
C6       0.23651    0.62708    0.89924   1.00
C6       0.21858    0.42074    0.94090   1.00
C6       0.22778    0.57107    0.94646   1.00
C6       0.15966    0.39245    0.90792   1.00
C6       0.29396    0.60054    0.93581   1.00
H2       0.21609    0.35558    0.86265   1.00
H2       0.25486    0.64020    0.87672   1.00
H2       0.25718    0.37330    0.88806   1.00
H2       0.20792    0.62154    0.88653   1.00
H2       0.22252    0.34459    0.91253   1.00
H2       0.23257    0.64863    0.92235   1.00
H2       0.21473    0.39955    0.96437   1.00
H2       0.22366    0.59098    0.97099   1.00
H2       0.24965    0.42725    0.93891   1.00
H2       0.19908    0.56494    0.93420   1.00
H2       0.20328    0.44745    0.94904   1.00
H2       0.23986    0.54385    0.95770   1.00
H2       0.14725    0.38042    0.88114   1.00
H2       0.31425    0.61383    0.91515   1.00
H2       0.15702    0.37025    0.93063   1.00
H2       0.28893    0.62149    0.95928   1.00
H2       0.14189    0.41739    0.91666   1.00
H2       0.30817    0.57502    0.94851   1.00
C4       0.01975    0.25010    0.74521   1.00
C4       -0.02191   0.25137    0.74432   1.00
C3       0.04103    0.21453    0.74199   1.00
C3       -0.04504   0.21782    0.73605   1.00
C3       0.04146    0.28548    0.74953   1.00
C3       -0.04170   0.28733    0.75184   1.00
C2       0.10405    0.24770    0.74509   1.00
C2       -0.10622   0.25346    0.74438   1.00
C3       0.08189    0.21330    0.74172   1.00
C3       -0.08591   0.21871    0.73626   1.00
C3       0.08304    0.28300    0.74891   1.00
C3       -0.08336   0.28695    0.75199   1.00
H1       0.02763    0.18812    0.74010   1.00
H1       -0.03306   0.19156    0.72919   1.00
C5       0.02165    0.32201    0.75454   1.00
C5       -0.01998   0.32243    0.75873   1.00
H1       0.09549    0.18672    0.73915   1.00
H1       -0.10091   0.19347    0.73022   1.00
H1       0.09948    0.30755    0.75163   1.00
H1       -0.09848   0.31188    0.75749   1.00
C6       0.04485    0.35961    0.75490   1.00
C6       -0.04119   0.35929    0.77075   1.00
H2       0.06655    0.35865    0.73167   1.00
H2       -0.06310   0.35200    0.79260   1.00
H2       0.02714    0.38440    0.74609   1.00
H2       -0.02228   0.37894    0.78694   1.00
C6       0.06394    0.36864    0.79548   1.00
C6       -0.05942   0.38192    0.73542   1.00
H2       0.07708    0.34206    0.80725   1.00
H2       -0.07383   0.36130    0.71581   1.00
C6       0.09541    0.40171    0.79713   1.00
C6       -0.08911   0.41535    0.74483   1.00
H2       0.04051    0.37611    0.81577   1.00
H2       -0.03546   0.39432    0.71844   1.00
C6       0.13265    0.39054    0.77393   1.00
C6       -0.12708   0.39924    0.76349   1.00
C6       0.07926    0.44090    0.78142   1.00
C6       -0.07107   0.44646    0.77222   1.00
C6       0.10755    0.40792    0.84034   1.00
C6       -0.10054   0.43581    0.70604   1.00
H2       0.14442    0.36265    0.78391   1.00
H2       -0.14020   0.37672    0.74514   1.00
H2       0.12670    0.38806    0.74282   1.00
H2       -0.12154   0.38653    0.79208   1.00
H2       0.15541    0.41253    0.77748   1.00
H2       -0.14863   0.42235    0.76743   1.00
H2       0.10045    0.46437    0.78527   1.00
H2       -0.09098   0.47099    0.77634   1.00
H2       0.07275    0.43891    0.75035   1.00
H2       -0.06494   0.43420    0.80092   1.00
H2       0.05255    0.44904    0.79672   1.00
H2       -0.04385   0.45770    0.76014   1.00
H2       0.11958    0.38114    0.85275   1.00
H2       -0.11383   0.41515    0.68575   1.00
H2       0.12975    0.43063    0.84298   1.00
H2       -0.12149   0.45928    0.71107   1.00
H2       0.08261    0.41666    0.85811   1.00
H2       -0.07502   0.44851    0.69183   1.00
C4       0.48025    0.25010    0.75479   1.00
C4       0.52191    0.25137    0.75568   1.00
C3       0.45897    0.21453    0.75801   1.00
C3       0.54504    0.21782    0.76395   1.00
C3       0.45854    0.28548    0.75047   1.00
C3       0.54170    0.28733    0.74816   1.00
C2       0.39595    0.24770    0.75491   1.00
C2       0.60622    0.25346    0.75562   1.00
C3       0.41811    0.21330    0.75828   1.00
C3       0.58591    0.21871    0.76374   1.00
C3       0.41696    0.28300    0.75109   1.00
C3       0.58336    0.28695    0.74801   1.00
H1       0.47237    0.18812    0.75990   1.00
H1       0.53306    0.19156    0.77081   1.00
C5       0.47835    0.32201    0.74546   1.00
C5       0.51998    0.32243    0.74127   1.00
H1       0.40451    0.18672    0.76085   1.00
H1       0.60091    0.19347    0.76978   1.00
H1       0.40052    0.30755    0.74837   1.00
H1       0.59848    0.31188    0.74251   1.00
C6       0.45515    0.35961    0.74510   1.00
C6       0.54119    0.35929    0.72925   1.00
H2       0.43345    0.35865    0.76833   1.00
H2       0.56310    0.35200    0.70740   1.00
H2       0.47286    0.38440    0.75391   1.00
H2       0.52228    0.37894    0.71306   1.00
C6       0.43606    0.36864    0.70452   1.00
C6       0.55942    0.38192    0.76458   1.00
H2       0.42292    0.34206    0.69275   1.00
H2       0.57383    0.36130    0.78419   1.00
C6       0.40459    0.40171    0.70287   1.00
C6       0.58911    0.41535    0.75517   1.00
H2       0.45949    0.37611    0.68423   1.00
H2       0.53546    0.39432    0.78156   1.00
C6       0.36735    0.39054    0.72607   1.00
C6       0.62708    0.39924    0.73651   1.00
C6       0.42074    0.44090    0.71858   1.00
C6       0.57107    0.44646    0.72778   1.00
C6       0.39245    0.40792    0.65966   1.00
C6       0.60054    0.43581    0.79396   1.00
H2       0.35558    0.36265    0.71609   1.00
H2       0.64020    0.37672    0.75486   1.00
H2       0.37330    0.38806    0.75718   1.00
H2       0.62154    0.38653    0.70792   1.00
H2       0.34459    0.41253    0.72252   1.00
H2       0.64863    0.42235    0.73257   1.00
H2       0.39955    0.46437    0.71473   1.00
H2       0.59098    0.47099    0.72366   1.00
H2       0.42725    0.43891    0.74965   1.00
H2       0.56494    0.43420    0.69908   1.00
H2       0.44745    0.44904    0.70328   1.00
H2       0.54385    0.45770    0.73986   1.00
H2       0.38042    0.38114    0.64725   1.00
H2       0.61383    0.41515    0.81425   1.00
H2       0.37025    0.43063    0.65702   1.00
H2       0.62149    0.45928    0.78893   1.00
H2       0.41739    0.41666    0.64189   1.00
H2       0.57502    0.44851    0.80817   1.00
C4       0.24521    0.01975    0.75010   1.00
C4       0.24432    -0.02191   0.75137   1.00
C3       0.24199    0.04103    0.71453   1.00
C3       0.23605    -0.04504   0.71782   1.00
C3       0.24953    0.04146    0.78548   1.00
C3       0.25184    -0.04170   0.78733   1.00
C2       0.24509    0.10405    0.74770   1.00
C2       0.24438    -0.10622   0.75346   1.00
C3       0.24172    0.08189    0.71330   1.00
C3       0.23626    -0.08591   0.71871   1.00
C3       0.24891    0.08304    0.78300   1.00
C3       0.25199    -0.08336   0.78695   1.00
H1       0.24010    0.02763    0.68812   1.00
H1       0.22919    -0.03306   0.69156   1.00
C5       0.25454    0.02165    0.82201   1.00
C5       0.25873    -0.01998   0.82243   1.00
H1       0.23915    0.09549    0.68672   1.00
H1       0.23022    -0.10091   0.69347   1.00
H1       0.25163    0.09948    0.80755   1.00
H1       0.25749    -0.09848   0.81188   1.00
C6       0.25490    0.04485    0.85961   1.00
C6       0.27075    -0.04119   0.85929   1.00
H2       0.23167    0.06655    0.85865   1.00
H2       0.29260    -0.06310   0.85200   1.00
H2       0.24609    0.02714    0.88440   1.00
H2       0.28694    -0.02228   0.87894   1.00
C6       0.29548    0.06394    0.86864   1.00
C6       0.23542    -0.05942   0.88192   1.00
H2       0.30725    0.07708    0.84206   1.00
H2       0.21581    -0.07383   0.86130   1.00
C6       0.29713    0.09541    0.90171   1.00
C6       0.24483    -0.08911   0.91535   1.00
H2       0.31577    0.04051    0.87611   1.00
H2       0.21844    -0.03546   0.89432   1.00
C6       0.27393    0.13265    0.89054   1.00
C6       0.26349    -0.12708   0.89924   1.00
C6       0.28142    0.07926    0.94090   1.00
C6       0.27222    -0.07107   0.94646   1.00
C6       0.34034    0.10755    0.90792   1.00
C6       0.20604    -0.10054   0.93581   1.00
H2       0.28391    0.14442    0.86265   1.00
H2       0.24514    -0.14020   0.87672   1.00
H2       0.24282    0.12670    0.88806   1.00
H2       0.29208    -0.12154   0.88653   1.00
H2       0.27748    0.15541    0.91253   1.00
H2       0.26743    -0.14863   0.92235   1.00
H2       0.28527    0.10045    0.96437   1.00
H2       0.27634    -0.09098   0.97099   1.00
H2       0.25035    0.07275    0.93891   1.00
H2       0.30092    -0.06494   0.93420   1.00
H2       0.29672    0.05255    0.94904   1.00
H2       0.26014    -0.04385   0.95770   1.00
H2       0.35275    0.11958    0.88114   1.00
H2       0.18575    -0.11383   0.91515   1.00
H2       0.34298    0.12975    0.93063   1.00
H2       0.21107    -0.12149   0.95928   1.00
H2       0.35811    0.08261    0.91666   1.00
H2       0.19183    -0.07502   0.94851   1.00
C4       0.25010    0.24521    0.51975   1.00
C4       0.25137    0.24432    0.47809   1.00
C3       0.21453    0.24199    0.54103   1.00
C3       0.21782    0.23605    0.45496   1.00
C3       0.28548    0.24953    0.54146   1.00
C3       0.28733    0.25184    0.45830   1.00
C2       0.24770    0.24509    0.60405   1.00
C2       0.25346    0.24438    0.39378   1.00
C3       0.21330    0.24172    0.58189   1.00
C3       0.21871    0.23626    0.41409   1.00
C3       0.28300    0.24891    0.58304   1.00
C3       0.28695    0.25199    0.41664   1.00
H1       0.18812    0.24010    0.52763   1.00
H1       0.19156    0.22919    0.46694   1.00
C5       0.32201    0.25454    0.52165   1.00
C5       0.32243    0.25873    0.48002   1.00
H1       0.18672    0.23915    0.59549   1.00
H1       0.19347    0.23022    0.39909   1.00
H1       0.30755    0.25163    0.59948   1.00
H1       0.31188    0.25749    0.40152   1.00
C6       0.35961    0.25490    0.54485   1.00
C6       0.35929    0.27075    0.45881   1.00
H2       0.35865    0.23167    0.56655   1.00
H2       0.35200    0.29260    0.43690   1.00
H2       0.38440    0.24609    0.52714   1.00
H2       0.37894    0.28694    0.47772   1.00
C6       0.36864    0.29548    0.56394   1.00
C6       0.38192    0.23542    0.44058   1.00
H2       0.34206    0.30725    0.57708   1.00
H2       0.36130    0.21581    0.42617   1.00
C6       0.40171    0.29713    0.59541   1.00
C6       0.41535    0.24483    0.41089   1.00
H2       0.37611    0.31577    0.54051   1.00
H2       0.39432    0.21844    0.46454   1.00
C6       0.39054    0.27393    0.63265   1.00
C6       0.39924    0.26349    0.37292   1.00
C6       0.44090    0.28142    0.57926   1.00
C6       0.44646    0.27222    0.42893   1.00
C6       0.40792    0.34034    0.60755   1.00
C6       0.43581    0.20604    0.39946   1.00
H2       0.36265    0.28391    0.64442   1.00
H2       0.37672    0.24514    0.35980   1.00
H2       0.38806    0.24282    0.62670   1.00
H2       0.38653    0.29208    0.37846   1.00
H2       0.41253    0.27748    0.65541   1.00
H2       0.42235    0.26743    0.35137   1.00
H2       0.46437    0.28527    0.60045   1.00
H2       0.47099    0.27634    0.40902   1.00
H2       0.43891    0.25035    0.57275   1.00
H2       0.43420    0.30092    0.43506   1.00
H2       0.44904    0.29672    0.55255   1.00
H2       0.45770    0.26014    0.45615   1.00
H2       0.38114    0.35275    0.61958   1.00
H2       0.41515    0.18575    0.38617   1.00
H2       0.43063    0.34298    0.62975   1.00
H2       0.45928    0.21107    0.37851   1.00
H2       0.41666    0.35811    0.58261   1.00
H2       0.44851    0.19183    0.42498   1.00
C4       0.25010    0.75479    0.48025   1.00
C4       0.25137    0.75568    0.52191   1.00
C3       0.21453    0.75801    0.45897   1.00
C3       0.21782    0.76395    0.54504   1.00
C3       0.28548    0.75047    0.45854   1.00
C3       0.28733    0.74816    0.54170   1.00
C2       0.24770    0.75491    0.39595   1.00
C2       0.25346    0.75562    0.60622   1.00
C3       0.21330    0.75828    0.41811   1.00
C3       0.21871    0.76374    0.58591   1.00
C3       0.28300    0.75109    0.41696   1.00
C3       0.28695    0.74801    0.58336   1.00
H1       0.18812    0.75990    0.47237   1.00
H1       0.19156    0.77081    0.53306   1.00
C5       0.32201    0.74546    0.47835   1.00
C5       0.32243    0.74127    0.51998   1.00
H1       0.18672    0.76085    0.40451   1.00
H1       0.19347    0.76978    0.60091   1.00
H1       0.30755    0.74837    0.40052   1.00
H1       0.31188    0.74251    0.59848   1.00
C6       0.35961    0.74510    0.45515   1.00
C6       0.35929    0.72925    0.54119   1.00
H2       0.35865    0.76833    0.43345   1.00
H2       0.35200    0.70740    0.56310   1.00
H2       0.38440    0.75391    0.47286   1.00
H2       0.37894    0.71306    0.52228   1.00
C6       0.36864    0.70452    0.43606   1.00
C6       0.38192    0.76458    0.55942   1.00
H2       0.34206    0.69275    0.42292   1.00
H2       0.36130    0.78419    0.57383   1.00
C6       0.40171    0.70287    0.40459   1.00
C6       0.41535    0.75517    0.58911   1.00
H2       0.37611    0.68423    0.45949   1.00
H2       0.39432    0.78156    0.53546   1.00
C6       0.39054    0.72607    0.36735   1.00
C6       0.39924    0.73651    0.62708   1.00
C6       0.44090    0.71858    0.42074   1.00
C6       0.44646    0.72778    0.57107   1.00
C6       0.40792    0.65966    0.39245   1.00
C6       0.43581    0.79396    0.60054   1.00
H2       0.36265    0.71609    0.35558   1.00
H2       0.37672    0.75486    0.64020   1.00
H2       0.38806    0.75718    0.37330   1.00
H2       0.38653    0.70792    0.62154   1.00
H2       0.41253    0.72252    0.34459   1.00
H2       0.42235    0.73257    0.64863   1.00
H2       0.46437    0.71473    0.39955   1.00
H2       0.47099    0.72366    0.59098   1.00
H2       0.43891    0.74965    0.42725   1.00
H2       0.43420    0.69908    0.56494   1.00
H2       0.44904    0.70328    0.44745   1.00
H2       0.45770    0.73986    0.54385   1.00
H2       0.38114    0.64725    0.38042   1.00
H2       0.41515    0.81425    0.61383   1.00
H2       0.43063    0.65702    0.37025   1.00
H2       0.45928    0.78893    0.62149   1.00
H2       0.41666    0.64189    0.41739   1.00
H2       0.44851    0.80817    0.57502   1.00
C4       0.25479    0.98025    0.25010   1.00
C4       0.25568    1.02191    0.25137   1.00
C3       0.25801    0.95897    0.21453   1.00
C3       0.26395    1.04504    0.21782   1.00
C3       0.25047    0.95854    0.28548   1.00
C3       0.24816    1.04170    0.28733   1.00
C2       0.25491    0.89595    0.24770   1.00
C2       0.25562    1.10622    0.25346   1.00
C3       0.25828    0.91811    0.21330   1.00
C3       0.26374    1.08591    0.21871   1.00
C3       0.25109    0.91696    0.28300   1.00
C3       0.24801    1.08336    0.28695   1.00
H1       0.25990    0.97237    0.18812   1.00
H1       0.27081    1.03306    0.19156   1.00
C5       0.24546    0.97835    0.32201   1.00
C5       0.24127    1.01998    0.32243   1.00
H1       0.26085    0.90451    0.18672   1.00
H1       0.26978    1.10091    0.19347   1.00
H1       0.24837    0.90052    0.30755   1.00
H1       0.24251    1.09848    0.31188   1.00
C6       0.24510    0.95515    0.35961   1.00
C6       0.22925    1.04119    0.35929   1.00
H2       0.26833    0.93345    0.35865   1.00
H2       0.20740    1.06310    0.35200   1.00
H2       0.25391    0.97286    0.38440   1.00
H2       0.21306    1.02228    0.37894   1.00
C6       0.20452    0.93606    0.36864   1.00
C6       0.26458    1.05942    0.38192   1.00
H2       0.19275    0.92292    0.34206   1.00
H2       0.28419    1.07383    0.36130   1.00
C6       0.20287    0.90459    0.40171   1.00
C6       0.25517    1.08911    0.41535   1.00
H2       0.18423    0.95949    0.37611   1.00
H2       0.28156    1.03546    0.39432   1.00
C6       0.22607    0.86735    0.39054   1.00
C6       0.23651    1.12708    0.39924   1.00
C6       0.21858    0.92074    0.44090   1.00
C6       0.22778    1.07107    0.44646   1.00
C6       0.15966    0.89245    0.40792   1.00
C6       0.29396    1.10054    0.43581   1.00
H2       0.21609    0.85558    0.36265   1.00
H2       0.25486    1.14020    0.37672   1.00
H2       0.25718    0.87330    0.38806   1.00
H2       0.20792    1.12154    0.38653   1.00
H2       0.22252    0.84459    0.41253   1.00
H2       0.23257    1.14863    0.42235   1.00
H2       0.21473    0.89955    0.46437   1.00
H2       0.22366    1.09098    0.47099   1.00
H2       0.24965    0.92725    0.43891   1.00
H2       0.19908    1.06494    0.43420   1.00
H2       0.20328    0.94745    0.44904   1.00
H2       0.23986    1.04385    0.45770   1.00
H2       0.14725    0.88042    0.38114   1.00
H2       0.31425    1.11383    0.41515   1.00
H2       0.15702    0.87025    0.43063   1.00
H2       0.28893    1.12149    0.45928   1.00
H2       0.14189    0.91739    0.41666   1.00
H2       0.30817    1.07502    0.44851   1.00
C4       0.01975    0.75010    0.24521   1.00
C4       -0.02191   0.75137    0.24432   1.00
C3       0.04103    0.71453    0.24199   1.00
C3       -0.04504   0.71782    0.23605   1.00
C3       0.04146    0.78548    0.24953   1.00
C3       -0.04170   0.78733    0.25184   1.00
C2       0.10405    0.74770    0.24509   1.00
C2       -0.10622   0.75346    0.24438   1.00
C3       0.08189    0.71330    0.24172   1.00
C3       -0.08591   0.71871    0.23626   1.00
C3       0.08304    0.78300    0.24891   1.00
C3       -0.08336   0.78695    0.25199   1.00
H1       0.02763    0.68812    0.24010   1.00
H1       -0.03306   0.69156    0.22919   1.00
C5       0.02165    0.82201    0.25454   1.00
C5       -0.01998   0.82243    0.25873   1.00
H1       0.09549    0.68672    0.23915   1.00
H1       -0.10091   0.69347    0.23022   1.00
H1       0.09948    0.80755    0.25163   1.00
H1       -0.09848   0.81188    0.25749   1.00
C6       0.04485    0.85961    0.25490   1.00
C6       -0.04119   0.85929    0.27075   1.00
H2       0.06655    0.85865    0.23167   1.00
H2       -0.06310   0.85200    0.29260   1.00
H2       0.02714    0.88440    0.24609   1.00
H2       -0.02228   0.87894    0.28694   1.00
C6       0.06394    0.86864    0.29548   1.00
C6       -0.05942   0.88192    0.23542   1.00
H2       0.07708    0.84206    0.30725   1.00
H2       -0.07383   0.86130    0.21581   1.00
C6       0.09541    0.90171    0.29713   1.00
C6       -0.08911   0.91535    0.24483   1.00
H2       0.04051    0.87611    0.31577   1.00
H2       -0.03546   0.89432    0.21844   1.00
C6       0.13265    0.89054    0.27393   1.00
C6       -0.12708   0.89924    0.26349   1.00
C6       0.07926    0.94090    0.28142   1.00
C6       -0.07107   0.94646    0.27222   1.00
C6       0.10755    0.90792    0.34034   1.00
C6       -0.10054   0.93581    0.20604   1.00
H2       0.14442    0.86265    0.28391   1.00
H2       -0.14020   0.87672    0.24514   1.00
H2       0.12670    0.88806    0.24282   1.00
H2       -0.12154   0.88653    0.29208   1.00
H2       0.15541    0.91253    0.27748   1.00
H2       -0.14863   0.92235    0.26743   1.00
H2       0.10045    0.96437    0.28527   1.00
H2       -0.09098   0.97099    0.27634   1.00
H2       0.07275    0.93891    0.25035   1.00
H2       -0.06494   0.93420    0.30092   1.00
H2       0.05255    0.94904    0.29672   1.00
H2       -0.04385   0.95770    0.26014   1.00
H2       0.11958    0.88114    0.35275   1.00
H2       -0.11383   0.91515    0.18575   1.00
H2       0.12975    0.93063    0.34298   1.00
H2       -0.12149   0.95928    0.21107   1.00
H2       0.08261    0.91666    0.35811   1.00
H2       -0.07502   0.94851    0.19183   1.00
C4       0.48025    0.75010    0.25479   1.00
C4       0.52191    0.75137    0.25568   1.00
C3       0.45897    0.71453    0.25801   1.00
C3       0.54504    0.71782    0.26395   1.00
C3       0.45854    0.78548    0.25047   1.00
C3       0.54170    0.78733    0.24816   1.00
C2       0.39595    0.74770    0.25491   1.00
C2       0.60622    0.75346    0.25562   1.00
C3       0.41811    0.71330    0.25828   1.00
C3       0.58591    0.71871    0.26374   1.00
C3       0.41696    0.78300    0.25109   1.00
C3       0.58336    0.78695    0.24801   1.00
H1       0.47237    0.68812    0.25990   1.00
H1       0.53306    0.69156    0.27081   1.00
C5       0.47835    0.82201    0.24546   1.00
C5       0.51998    0.82243    0.24127   1.00
H1       0.40451    0.68672    0.26085   1.00
H1       0.60091    0.69347    0.26978   1.00
H1       0.40052    0.80755    0.24837   1.00
H1       0.59848    0.81188    0.24251   1.00
C6       0.45515    0.85961    0.24510   1.00
C6       0.54119    0.85929    0.22925   1.00
H2       0.43345    0.85865    0.26833   1.00
H2       0.56310    0.85200    0.20740   1.00
H2       0.47286    0.88440    0.25391   1.00
H2       0.52228    0.87894    0.21306   1.00
C6       0.43606    0.86864    0.20452   1.00
C6       0.55942    0.88192    0.26458   1.00
H2       0.42292    0.84206    0.19275   1.00
H2       0.57383    0.86130    0.28419   1.00
C6       0.40459    0.90171    0.20287   1.00
C6       0.58911    0.91535    0.25517   1.00
H2       0.45949    0.87611    0.18423   1.00
H2       0.53546    0.89432    0.28156   1.00
C6       0.36735    0.89054    0.22607   1.00
C6       0.62708    0.89924    0.23651   1.00
C6       0.42074    0.94090    0.21858   1.00
C6       0.57107    0.94646    0.22778   1.00
C6       0.39245    0.90792    0.15966   1.00
C6       0.60054    0.93581    0.29396   1.00
H2       0.35558    0.86265    0.21609   1.00
H2       0.64020    0.87672    0.25486   1.00
H2       0.37330    0.88806    0.25718   1.00
H2       0.62154    0.88653    0.20792   1.00
H2       0.34459    0.91253    0.22252   1.00
H2       0.64863    0.92235    0.23257   1.00
H2       0.39955    0.96437    0.21473   1.00
H2       0.59098    0.97099    0.22366   1.00
H2       0.42725    0.93891    0.24965   1.00
H2       0.56494    0.93420    0.19908   1.00
H2       0.44745    0.94904    0.20328   1.00
H2       0.54385    0.95770    0.23986   1.00
H2       0.38042    0.88114    0.14725   1.00
H2       0.61383    0.91515    0.31425   1.00
H2       0.37025    0.93063    0.15702   1.00
H2       0.62149    0.95928    0.28893   1.00
H2       0.41739    0.91666    0.14189   1.00
H2       0.57502    0.94851    0.30817   1.00
C4       0.24521    0.51975    0.25010   1.00
C4       0.24432    0.47809    0.25137   1.00
C3       0.24199    0.54103    0.21453   1.00
C3       0.23605    0.45496    0.21782   1.00
C3       0.24953    0.54146    0.28548   1.00
C3       0.25184    0.45830    0.28733   1.00
C2       0.24509    0.60405    0.24770   1.00
C2       0.24438    0.39378    0.25346   1.00
C3       0.24172    0.58189    0.21330   1.00
C3       0.23626    0.41409    0.21871   1.00
C3       0.24891    0.58304    0.28300   1.00
C3       0.25199    0.41664    0.28695   1.00
H1       0.24010    0.52763    0.18812   1.00
H1       0.22919    0.46694    0.19156   1.00
C5       0.25454    0.52165    0.32201   1.00
C5       0.25873    0.48002    0.32243   1.00
H1       0.23915    0.59549    0.18672   1.00
H1       0.23022    0.39909    0.19347   1.00
H1       0.25163    0.59948    0.30755   1.00
H1       0.25749    0.40152    0.31188   1.00
C6       0.25490    0.54485    0.35961   1.00
C6       0.27075    0.45881    0.35929   1.00
H2       0.23167    0.56655    0.35865   1.00
H2       0.29260    0.43690    0.35200   1.00
H2       0.24609    0.52714    0.38440   1.00
H2       0.28694    0.47772    0.37894   1.00
C6       0.29548    0.56394    0.36864   1.00
C6       0.23542    0.44058    0.38192   1.00
H2       0.30725    0.57708    0.34206   1.00
H2       0.21581    0.42617    0.36130   1.00
C6       0.29713    0.59541    0.40171   1.00
C6       0.24483    0.41089    0.41535   1.00
H2       0.31577    0.54051    0.37611   1.00
H2       0.21844    0.46454    0.39432   1.00
C6       0.27393    0.63265    0.39054   1.00
C6       0.26349    0.37292    0.39924   1.00
C6       0.28142    0.57926    0.44090   1.00
C6       0.27222    0.42893    0.44646   1.00
C6       0.34034    0.60755    0.40792   1.00
C6       0.20604    0.39946    0.43581   1.00
H2       0.28391    0.64442    0.36265   1.00
H2       0.24514    0.35980    0.37672   1.00
H2       0.24282    0.62670    0.38806   1.00
H2       0.29208    0.37846    0.38653   1.00
H2       0.27748    0.65541    0.41253   1.00
H2       0.26743    0.35137    0.42235   1.00
H2       0.28527    0.60045    0.46437   1.00
H2       0.27634    0.40902    0.47099   1.00
H2       0.25035    0.57275    0.43891   1.00
H2       0.30092    0.43506    0.43420   1.00
H2       0.29672    0.55255    0.44904   1.00
H2       0.26014    0.45615    0.45770   1.00
H2       0.35275    0.61958    0.38114   1.00
H2       0.18575    0.38617    0.41515   1.00
H2       0.34298    0.62975    0.43063   1.00
H2       0.21107    0.37851    0.45928   1.00
H2       0.35811    0.58261    0.41666   1.00
H2       0.19183    0.42498    0.44851   1.00
C4       0.25010    0.74521    0.01975   1.00
C4       0.25137    0.74432    -0.02191   1.00
C3       0.21453    0.74199    0.04103   1.00
C3       0.21782    0.73605    -0.04504   1.00
C3       0.28548    0.74953    0.04146   1.00
C3       0.28733    0.75184    -0.04170   1.00
C2       0.24770    0.74509    0.10405   1.00
C2       0.25346    0.74438    -0.10622   1.00
C3       0.21330    0.74172    0.08189   1.00
C3       0.21871    0.73626    -0.08591   1.00
C3       0.28300    0.74891    0.08304   1.00
C3       0.28695    0.75199    -0.08336   1.00
H1       0.18812    0.74010    0.02763   1.00
H1       0.19156    0.72919    -0.03306   1.00
C5       0.32201    0.75454    0.02165   1.00
C5       0.32243    0.75873    -0.01998   1.00
H1       0.18672    0.73915    0.09549   1.00
H1       0.19347    0.73022    -0.10091   1.00
H1       0.30755    0.75163    0.09948   1.00
H1       0.31188    0.75749    -0.09848   1.00
C6       0.35961    0.75490    0.04485   1.00
C6       0.35929    0.77075    -0.04119   1.00
H2       0.35865    0.73167    0.06655   1.00
H2       0.35200    0.79260    -0.06310   1.00
H2       0.38440    0.74609    0.02714   1.00
H2       0.37894    0.78694    -0.02228   1.00
C6       0.36864    0.79548    0.06394   1.00
C6       0.38192    0.73542    -0.05942   1.00
H2       0.34206    0.80725    0.07708   1.00
H2       0.36130    0.71581    -0.07383   1.00
C6       0.40171    0.79713    0.09541   1.00
C6       0.41535    0.74483    -0.08911   1.00
H2       0.37611    0.81577    0.04051   1.00
H2       0.39432    0.71844    -0.03546   1.00
C6       0.39054    0.77393    0.13265   1.00
C6       0.39924    0.76349    -0.12708   1.00
C6       0.44090    0.78142    0.07926   1.00
C6       0.44646    0.77222    -0.07107   1.00
C6       0.40792    0.84034    0.10755   1.00
C6       0.43581    0.70604    -0.10054   1.00
H2       0.36265    0.78391    0.14442   1.00
H2       0.37672    0.74514    -0.14020   1.00
H2       0.38806    0.74282    0.12670   1.00
H2       0.38653    0.79208    -0.12154   1.00
H2       0.41253    0.77748    0.15541   1.00
H2       0.42235    0.76743    -0.14863   1.00
H2       0.46437    0.78527    0.10045   1.00
H2       0.47099    0.77634    -0.09098   1.00
H2       0.43891    0.75035    0.07275   1.00
H2       0.43420    0.80092    -0.06494   1.00
H2       0.44904    0.79672    0.05255   1.00
H2       0.45770    0.76014    -0.04385   1.00
H2       0.38114    0.85275    0.11958   1.00
H2       0.41515    0.68575    -0.11383   1.00
H2       0.43063    0.84298    0.12975   1.00
H2       0.45928    0.71107    -0.12149   1.00
H2       0.41666    0.85811    0.08261   1.00
H2       0.44851    0.69183    -0.07502   1.00
C4       0.75010    0.25479    0.48025   1.00
C4       0.75137    0.25568    0.52191   1.00
C3       0.71453    0.25801    0.45897   1.00
C3       0.71782    0.26395    0.54504   1.00
C3       0.78548    0.25047    0.45854   1.00
C3       0.78733    0.24816    0.54170   1.00
C2       0.74770    0.25491    0.39595   1.00
C2       0.75346    0.25562    0.60622   1.00
C3       0.71330    0.25828    0.41811   1.00
C3       0.71871    0.26374    0.58591   1.00
C3       0.78300    0.25109    0.41696   1.00
C3       0.78695    0.24801    0.58336   1.00
H1       0.68812    0.25990    0.47237   1.00
H1       0.69156    0.27081    0.53306   1.00
C5       0.82201    0.24546    0.47835   1.00
C5       0.82243    0.24127    0.51998   1.00
H1       0.68672    0.26085    0.40451   1.00
H1       0.69347    0.26978    0.60091   1.00
H1       0.80755    0.24837    0.40052   1.00
H1       0.81188    0.24251    0.59848   1.00
C6       0.85961    0.24510    0.45515   1.00
C6       0.85929    0.22925    0.54119   1.00
H2       0.85865    0.26833    0.43345   1.00
H2       0.85200    0.20740    0.56310   1.00
H2       0.88440    0.25391    0.47286   1.00
H2       0.87894    0.21306    0.52228   1.00
C6       0.86864    0.20452    0.43606   1.00
C6       0.88192    0.26458    0.55942   1.00
H2       0.84206    0.19275    0.42292   1.00
H2       0.86130    0.28419    0.57383   1.00
C6       0.90171    0.20287    0.40459   1.00
C6       0.91535    0.25517    0.58911   1.00
H2       0.87611    0.18423    0.45949   1.00
H2       0.89432    0.28156    0.53546   1.00
C6       0.89054    0.22607    0.36735   1.00
C6       0.89924    0.23651    0.62708   1.00
C6       0.94090    0.21858    0.42074   1.00
C6       0.94646    0.22778    0.57107   1.00
C6       0.90792    0.15966    0.39245   1.00
C6       0.93581    0.29396    0.60054   1.00
H2       0.86265    0.21609    0.35558   1.00
H2       0.87672    0.25486    0.64020   1.00
H2       0.88806    0.25718    0.37330   1.00
H2       0.88653    0.20792    0.62154   1.00
H2       0.91253    0.22252    0.34459   1.00
H2       0.92235    0.23257    0.64863   1.00
H2       0.96437    0.21473    0.39955   1.00
H2       0.97099    0.22366    0.59098   1.00
H2       0.93891    0.24965    0.42725   1.00
H2       0.93420    0.19908    0.56494   1.00
H2       0.94904    0.20328    0.44745   1.00
H2       0.95770    0.23986    0.54385   1.00
H2       0.88114    0.14725    0.38042   1.00
H2       0.91515    0.31425    0.61383   1.00
H2       0.93063    0.15702    0.37025   1.00
H2       0.95928    0.28893    0.62149   1.00
H2       0.91666    0.14189    0.41739   1.00
H2       0.94851    0.30817    0.57502   1.00
C4       0.75479    0.48025    0.25010   1.00
C4       0.75568    0.52191    0.25137   1.00
C3       0.75801    0.45897    0.21453   1.00
C3       0.76395    0.54504    0.21782   1.00
C3       0.75047    0.45854    0.28548   1.00
C3       0.74816    0.54170    0.28733   1.00
C2       0.75491    0.39595    0.24770   1.00
C2       0.75562    0.60622    0.25346   1.00
C3       0.75828    0.41811    0.21330   1.00
C3       0.76374    0.58591    0.21871   1.00
C3       0.75109    0.41696    0.28300   1.00
C3       0.74801    0.58336    0.28695   1.00
H1       0.75990    0.47237    0.18812   1.00
H1       0.77081    0.53306    0.19156   1.00
C5       0.74546    0.47835    0.32201   1.00
C5       0.74127    0.51998    0.32243   1.00
H1       0.76085    0.40451    0.18672   1.00
H1       0.76978    0.60091    0.19347   1.00
H1       0.74837    0.40052    0.30755   1.00
H1       0.74251    0.59848    0.31188   1.00
C6       0.74510    0.45515    0.35961   1.00
C6       0.72925    0.54119    0.35929   1.00
H2       0.76833    0.43345    0.35865   1.00
H2       0.70740    0.56310    0.35200   1.00
H2       0.75391    0.47286    0.38440   1.00
H2       0.71306    0.52228    0.37894   1.00
C6       0.70452    0.43606    0.36864   1.00
C6       0.76458    0.55942    0.38192   1.00
H2       0.69275    0.42292    0.34206   1.00
H2       0.78419    0.57383    0.36130   1.00
C6       0.70287    0.40459    0.40171   1.00
C6       0.75517    0.58911    0.41535   1.00
H2       0.68423    0.45949    0.37611   1.00
H2       0.78156    0.53546    0.39432   1.00
C6       0.72607    0.36735    0.39054   1.00
C6       0.73651    0.62708    0.39924   1.00
C6       0.71858    0.42074    0.44090   1.00
C6       0.72778    0.57107    0.44646   1.00
C6       0.65966    0.39245    0.40792   1.00
C6       0.79396    0.60054    0.43581   1.00
H2       0.71609    0.35558    0.36265   1.00
H2       0.75486    0.64020    0.37672   1.00
H2       0.75718    0.37330    0.38806   1.00
H2       0.70792    0.62154    0.38653   1.00
H2       0.72252    0.34459    0.41253   1.00
H2       0.73257    0.64863    0.42235   1.00
H2       0.71473    0.39955    0.46437   1.00
H2       0.72366    0.59098    0.47099   1.00
H2       0.74965    0.42725    0.43891   1.00
H2       0.69908    0.56494    0.43420   1.00
H2       0.70328    0.44745    0.44904   1.00
H2       0.73986    0.54385    0.45770   1.00
H2       0.64725    0.38042    0.38114   1.00
H2       0.81425    0.61383    0.41515   1.00
H2       0.65702    0.37025    0.43063   1.00
H2       0.78893    0.62149    0.45928   1.00
H2       0.64189    0.41739    0.41666   1.00
H2       0.80817    0.57502    0.44851   1.00
C4       0.51975    0.25010    0.24521   1.00
C4       0.47809    0.25137    0.24432   1.00
C3       0.54103    0.21453    0.24199   1.00
C3       0.45496    0.21782    0.23605   1.00
C3       0.54146    0.28548    0.24953   1.00
C3       0.45830    0.28733    0.25184   1.00
C2       0.60405    0.24770    0.24509   1.00
C2       0.39378    0.25346    0.24438   1.00
C3       0.58189    0.21330    0.24172   1.00
C3       0.41409    0.21871    0.23626   1.00
C3       0.58304    0.28300    0.24891   1.00
C3       0.41664    0.28695    0.25199   1.00
H1       0.52763    0.18812    0.24010   1.00
H1       0.46694    0.19156    0.22919   1.00
C5       0.52165    0.32201    0.25454   1.00
C5       0.48002    0.32243    0.25873   1.00
H1       0.59549    0.18672    0.23915   1.00
H1       0.39909    0.19347    0.23022   1.00
H1       0.59948    0.30755    0.25163   1.00
H1       0.40152    0.31188    0.25749   1.00
C6       0.54485    0.35961    0.25490   1.00
C6       0.45881    0.35929    0.27075   1.00
H2       0.56655    0.35865    0.23167   1.00
H2       0.43690    0.35200    0.29260   1.00
H2       0.52714    0.38440    0.24609   1.00
H2       0.47772    0.37894    0.28694   1.00
C6       0.56394    0.36864    0.29548   1.00
C6       0.44058    0.38192    0.23542   1.00
H2       0.57708    0.34206    0.30725   1.00
H2       0.42617    0.36130    0.21581   1.00
C6       0.59541    0.40171    0.29713   1.00
C6       0.41089    0.41535    0.24483   1.00
H2       0.54051    0.37611    0.31577   1.00
H2       0.46454    0.39432    0.21844   1.00
C6       0.63265    0.39054    0.27393   1.00
C6       0.37292    0.39924    0.26349   1.00
C6       0.57926    0.44090    0.28142   1.00
C6       0.42893    0.44646    0.27222   1.00
C6       0.60755    0.40792    0.34034   1.00
C6       0.39946    0.43581    0.20604   1.00
H2       0.64442    0.36265    0.28391   1.00
H2       0.35980    0.37672    0.24514   1.00
H2       0.62670    0.38806    0.24282   1.00
H2       0.37846    0.38653    0.29208   1.00
H2       0.65541    0.41253    0.27748   1.00
H2       0.35137    0.42235    0.26743   1.00
H2       0.60045    0.46437    0.28527   1.00
H2       0.40902    0.47099    0.27634   1.00
H2       0.57275    0.43891    0.25035   1.00
H2       0.43506    0.43420    0.30092   1.00
H2       0.55255    0.44904    0.29672   1.00
H2       0.45615    0.45770    0.26014   1.00
H2       0.61958    0.38114    0.35275   1.00
H2       0.38617    0.41515    0.18575   1.00
H2       0.62975    0.43063    0.34298   1.00
H2       0.37851    0.45928    0.21107   1.00
H2       0.58261    0.41666    0.35811   1.00
H2       0.42498    0.44851    0.19183   1.00
C4       0.98025    0.25010    0.25479   1.00
C4       1.02191    0.25137    0.25568   1.00
C3       0.95897    0.21453    0.25801   1.00
C3       1.04504    0.21782    0.26395   1.00
C3       0.95854    0.28548    0.25047   1.00
C3       1.04170    0.28733    0.24816   1.00
C2       0.89595    0.24770    0.25491   1.00
C2       1.10622    0.25346    0.25562   1.00
C3       0.91811    0.21330    0.25828   1.00
C3       1.08591    0.21871    0.26374   1.00
C3       0.91696    0.28300    0.25109   1.00
C3       1.08336    0.28695    0.24801   1.00
H1       0.97237    0.18812    0.25990   1.00
H1       1.03306    0.19156    0.27081   1.00
C5       0.97835    0.32201    0.24546   1.00
C5       1.01998    0.32243    0.24127   1.00
H1       0.90451    0.18672    0.26085   1.00
H1       1.10091    0.19347    0.26978   1.00
H1       0.90052    0.30755    0.24837   1.00
H1       1.09848    0.31188    0.24251   1.00
C6       0.95515    0.35961    0.24510   1.00
C6       1.04119    0.35929    0.22925   1.00
H2       0.93345    0.35865    0.26833   1.00
H2       1.06310    0.35200    0.20740   1.00
H2       0.97286    0.38440    0.25391   1.00
H2       1.02228    0.37894    0.21306   1.00
C6       0.93606    0.36864    0.20452   1.00
C6       1.05942    0.38192    0.26458   1.00
H2       0.92292    0.34206    0.19275   1.00
H2       1.07383    0.36130    0.28419   1.00
C6       0.90459    0.40171    0.20287   1.00
C6       1.08911    0.41535    0.25517   1.00
H2       0.95949    0.37611    0.18423   1.00
H2       1.03546    0.39432    0.28156   1.00
C6       0.86735    0.39054    0.22607   1.00
C6       1.12708    0.39924    0.23651   1.00
C6       0.92074    0.44090    0.21858   1.00
C6       1.07107    0.44646    0.22778   1.00
C6       0.89245    0.40792    0.15966   1.00
C6       1.10054    0.43581    0.29396   1.00
H2       0.85558    0.36265    0.21609   1.00
H2       1.14020    0.37672    0.25486   1.00
H2       0.87330    0.38806    0.25718   1.00
H2       1.12154    0.38653    0.20792   1.00
H2       0.84459    0.41253    0.22252   1.00
H2       1.14863    0.42235    0.23257   1.00
H2       0.89955    0.46437    0.21473   1.00
H2       1.09098    0.47099    0.22366   1.00
H2       0.92725    0.43891    0.24965   1.00
H2       1.06494    0.43420    0.19908   1.00
H2       0.94745    0.44904    0.20328   1.00
H2       1.04385    0.45770    0.23986   1.00
H2       0.88042    0.38114    0.14725   1.00
H2       1.11383    0.41515    0.31425   1.00
H2       0.87025    0.43063    0.15702   1.00
H2       1.12149    0.45928    0.28893   1.00
H2       0.91739    0.41666    0.14189   1.00
H2       1.07502    0.44851    0.30817   1.00
C4       0.74521    0.01975    0.25010   1.00
C4       0.74432    -0.02191   0.25137   1.00
C3       0.74199    0.04103    0.21453   1.00
C3       0.73605    -0.04504   0.21782   1.00
C3       0.74953    0.04146    0.28548   1.00
C3       0.75184    -0.04170   0.28733   1.00
C2       0.74509    0.10405    0.24770   1.00
C2       0.74438    -0.10622   0.25346   1.00
C3       0.74172    0.08189    0.21330   1.00
C3       0.73626    -0.08591   0.21871   1.00
C3       0.74891    0.08304    0.28300   1.00
C3       0.75199    -0.08336   0.28695   1.00
H1       0.74010    0.02763    0.18812   1.00
H1       0.72919    -0.03306   0.19156   1.00
C5       0.75454    0.02165    0.32201   1.00
C5       0.75873    -0.01998   0.32243   1.00
H1       0.73915    0.09549    0.18672   1.00
H1       0.73022    -0.10091   0.19347   1.00
H1       0.75163    0.09948    0.30755   1.00
H1       0.75749    -0.09848   0.31188   1.00
C6       0.75490    0.04485    0.35961   1.00
C6       0.77075    -0.04119   0.35929   1.00
H2       0.73167    0.06655    0.35865   1.00
H2       0.79260    -0.06310   0.35200   1.00
H2       0.74609    0.02714    0.38440   1.00
H2       0.78694    -0.02228   0.37894   1.00
C6       0.79548    0.06394    0.36864   1.00
C6       0.73542    -0.05942   0.38192   1.00
H2       0.80725    0.07708    0.34206   1.00
H2       0.71581    -0.07383   0.36130   1.00
C6       0.79713    0.09541    0.40171   1.00
C6       0.74483    -0.08911   0.41535   1.00
H2       0.81577    0.04051    0.37611   1.00
H2       0.71844    -0.03546   0.39432   1.00
C6       0.77393    0.13265    0.39054   1.00
C6       0.76349    -0.12708   0.39924   1.00
C6       0.78142    0.07926    0.44090   1.00
C6       0.77222    -0.07107   0.44646   1.00
C6       0.84034    0.10755    0.40792   1.00
C6       0.70604    -0.10054   0.43581   1.00
H2       0.78391    0.14442    0.36265   1.00
H2       0.74514    -0.14020   0.37672   1.00
H2       0.74282    0.12670    0.38806   1.00
H2       0.79208    -0.12154   0.38653   1.00
H2       0.77748    0.15541    0.41253   1.00
H2       0.76743    -0.14863   0.42235   1.00
H2       0.78527    0.10045    0.46437   1.00
H2       0.77634    -0.09098   0.47099   1.00
H2       0.75035    0.07275    0.43891   1.00
H2       0.80092    -0.06494   0.43420   1.00
H2       0.79672    0.05255    0.44904   1.00
H2       0.76014    -0.04385   0.45770   1.00
H2       0.85275    0.11958    0.38114   1.00
H2       0.68575    -0.11383   0.41515   1.00
H2       0.84298    0.12975    0.43063   1.00
H2       0.71107    -0.12149   0.45928   1.00
H2       0.85811    0.08261    0.41666   1.00
H2       0.69183    -0.07502   0.44851   1.00
C4       0.75010    0.24521    0.01975   1.00
C4       0.75137    0.24432    -0.02191   1.00
C3       0.71453    0.24199    0.04103   1.00
C3       0.71782    0.23605    -0.04504   1.00
C3       0.78548    0.24953    0.04146   1.00
C3       0.78733    0.25184    -0.04170   1.00
C2       0.74770    0.24509    0.10405   1.00
C2       0.75346    0.24438    -0.10622   1.00
C3       0.71330    0.24172    0.08189   1.00
C3       0.71871    0.23626    -0.08591   1.00
C3       0.78300    0.24891    0.08304   1.00
C3       0.78695    0.25199    -0.08336   1.00
H1       0.68812    0.24010    0.02763   1.00
H1       0.69156    0.22919    -0.03306   1.00
C5       0.82201    0.25454    0.02165   1.00
C5       0.82243    0.25873    -0.01998   1.00
H1       0.68672    0.23915    0.09549   1.00
H1       0.69347    0.23022    -0.10091   1.00
H1       0.80755    0.25163    0.09948   1.00
H1       0.81188    0.25749    -0.09848   1.00
C6       0.85961    0.25490    0.04485   1.00
C6       0.85929    0.27075    -0.04119   1.00
H2       0.85865    0.23167    0.06655   1.00
H2       0.85200    0.29260    -0.06310   1.00
H2       0.88440    0.24609    0.02714   1.00
H2       0.87894    0.28694    -0.02228   1.00
C6       0.86864    0.29548    0.06394   1.00
C6       0.88192    0.23542    -0.05942   1.00
H2       0.84206    0.30725    0.07708   1.00
H2       0.86130    0.21581    -0.07383   1.00
C6       0.90171    0.29713    0.09541   1.00
C6       0.91535    0.24483    -0.08911   1.00
H2       0.87611    0.31577    0.04051   1.00
H2       0.89432    0.21844    -0.03546   1.00
C6       0.89054    0.27393    0.13265   1.00
C6       0.89924    0.26349    -0.12708   1.00
C6       0.94090    0.28142    0.07926   1.00
C6       0.94646    0.27222    -0.07107   1.00
C6       0.90792    0.34034    0.10755   1.00
C6       0.93581    0.20604    -0.10054   1.00
H2       0.86265    0.28391    0.14442   1.00
H2       0.87672    0.24514    -0.14020   1.00
H2       0.88806    0.24282    0.12670   1.00
H2       0.88653    0.29208    -0.12154   1.00
H2       0.91253    0.27748    0.15541   1.00
H2       0.92235    0.26743    -0.14863   1.00
H2       0.96437    0.28527    0.10045   1.00
H2       0.97099    0.27634    -0.09098   1.00
H2       0.93891    0.25035    0.07275   1.00
H2       0.93420    0.30092    -0.06494   1.00
H2       0.94904    0.29672    0.05255   1.00
H2       0.95770    0.26014    -0.04385   1.00
H2       0.88114    0.35275    0.11958   1.00
H2       0.91515    0.18575    -0.11383   1.00
H2       0.93063    0.34298    0.12975   1.00
H2       0.95928    0.21107    -0.12149   1.00
H2       0.91666    0.35811    0.08261   1.00
H2       0.94851    0.19183    -0.07502   1.00
