data_IRMOF10_SG202_Ligand8_label_c.

_audit_creation_method             'generated by an auxiliary program of Tobunporous'

_symmetry_space_group_name_H-M     'P 1'
_symmetry_Int_Tables_number        1
_symmetry_cell_setting             triclinic

_cell_length_a                    34.2800
_cell_length_b                    34.2800
_cell_length_c                    34.2800
_cell_angle_alpha                 90.0000
_cell_angle_beta                  90.0000
_cell_angle_gamma                 90.0000

loop_
_atom_site_label
_atom_site_fract_x
_atom_site_fract_y
_atom_site_fract_z
_atom_site_occupancy
O1       0.75000    0.75000    0.75000   1.00
Zn1      0.71720    0.78280    0.78280   1.00
Zn1      0.78280    0.71720    0.78280   1.00
Zn1      0.78280    0.78280    0.71720   1.00
Zn1      0.71720    0.71720    0.71720   1.00
O2       0.72650    0.77350    0.83820   1.00
O2       0.72650    0.83820    0.77350   1.00
O2       0.66180    0.77350    0.77350   1.00
O2       0.77350    0.72650    0.83820   1.00
O2       0.83820    0.72650    0.77350   1.00
O2       0.77350    0.66180    0.77350   1.00
O2       0.77350    0.83820    0.72650   1.00
O2       0.83820    0.77350    0.72650   1.00
O2       0.77350    0.77350    0.66180   1.00
O2       0.66180    0.72650    0.72650   1.00
O2       0.72650    0.66180    0.72650   1.00
O2       0.72650    0.72650    0.66180   1.00
C1       0.75000    0.75000    0.85520   1.00
C1       0.75000    0.85520    0.75000   1.00
C1       0.64480    0.75000    0.75000   1.00
C1       0.85520    0.75000    0.75000   1.00
C1       0.75000    0.64480    0.75000   1.00
C1       0.75000    0.75000    0.64480   1.00
O1       0.25000    0.25000    0.75000   1.00
Zn1      0.21720    0.28280    0.78280   1.00
Zn1      0.28280    0.21720    0.78280   1.00
Zn1      0.28280    0.28280    0.71720   1.00
Zn1      0.21720    0.21720    0.71720   1.00
O2       0.22650    0.27350    0.83820   1.00
O2       0.22650    0.33820    0.77350   1.00
O2       0.16180    0.27350    0.77350   1.00
O2       0.27350    0.22650    0.83820   1.00
O2       0.33820    0.22650    0.77350   1.00
O2       0.27350    0.16180    0.77350   1.00
O2       0.27350    0.33820    0.72650   1.00
O2       0.33820    0.27350    0.72650   1.00
O2       0.27350    0.27350    0.66180   1.00
O2       0.16180    0.22650    0.72650   1.00
O2       0.22650    0.16180    0.72650   1.00
O2       0.22650    0.22650    0.66180   1.00
C1       0.25000    0.25000    0.85520   1.00
C1       0.25000    0.35520    0.75000   1.00
C1       0.14480    0.25000    0.75000   1.00
C1       0.35520    0.25000    0.75000   1.00
C1       0.25000    0.14480    0.75000   1.00
C1       0.25000    0.25000    0.64480   1.00
O1       0.25000    0.75000    0.25000   1.00
Zn1      0.21720    0.78280    0.28280   1.00
Zn1      0.28280    0.71720    0.28280   1.00
Zn1      0.28280    0.78280    0.21720   1.00
Zn1      0.21720    0.71720    0.21720   1.00
O2       0.22650    0.77350    0.33820   1.00
O2       0.22650    0.83820    0.27350   1.00
O2       0.16180    0.77350    0.27350   1.00
O2       0.27350    0.72650    0.33820   1.00
O2       0.33820    0.72650    0.27350   1.00
O2       0.27350    0.66180    0.27350   1.00
O2       0.27350    0.83820    0.22650   1.00
O2       0.33820    0.77350    0.22650   1.00
O2       0.27350    0.77350    0.16180   1.00
O2       0.16180    0.72650    0.22650   1.00
O2       0.22650    0.66180    0.22650   1.00
O2       0.22650    0.72650    0.16180   1.00
C1       0.25000    0.75000    0.35520   1.00
C1       0.25000    0.85520    0.25000   1.00
C1       0.14480    0.75000    0.25000   1.00
C1       0.35520    0.75000    0.25000   1.00
C1       0.25000    0.64480    0.25000   1.00
C1       0.25000    0.75000    0.14480   1.00
O1       0.75000    0.25000    0.25000   1.00
Zn1      0.71720    0.28280    0.28280   1.00
Zn1      0.78280    0.21720    0.28280   1.00
Zn1      0.78280    0.28280    0.21720   1.00
Zn1      0.71720    0.21720    0.21720   1.00
O2       0.72650    0.27350    0.33820   1.00
O2       0.72650    0.33820    0.27350   1.00
O2       0.66180    0.27350    0.27350   1.00
O2       0.77350    0.22650    0.33820   1.00
O2       0.83820    0.22650    0.27350   1.00
O2       0.77350    0.16180    0.27350   1.00
O2       0.77350    0.33820    0.22650   1.00
O2       0.83820    0.27350    0.22650   1.00
O2       0.77350    0.27350    0.16180   1.00
O2       0.66180    0.22650    0.22650   1.00
O2       0.72650    0.16180    0.22650   1.00
O2       0.72650    0.22650    0.16180   1.00
C1       0.75000    0.25000    0.35520   1.00
C1       0.75000    0.35520    0.25000   1.00
C1       0.64480    0.25000    0.25000   1.00
C1       0.85520    0.25000    0.25000   1.00
C1       0.75000    0.14480    0.25000   1.00
C1       0.75000    0.25000    0.14480   1.00
O1       0.25000    0.25000    0.25000   1.00
Zn1      0.28280    0.21720    0.21720   1.00
Zn1      0.21720    0.28280    0.21720   1.00
Zn1      0.21720    0.21720    0.28280   1.00
Zn1      0.28280    0.28280    0.28280   1.00
O2       0.27350    0.22650    0.16180   1.00
O2       0.27350    0.16180    0.22650   1.00
O2       0.33820    0.22650    0.22650   1.00
O2       0.22650    0.27350    0.16180   1.00
O2       0.16180    0.27350    0.22650   1.00
O2       0.22650    0.33820    0.22650   1.00
O2       0.22650    0.16180    0.27350   1.00
O2       0.16180    0.22650    0.27350   1.00
O2       0.22650    0.22650    0.33820   1.00
O2       0.33820    0.27350    0.27350   1.00
O2       0.27350    0.33820    0.27350   1.00
O2       0.27350    0.27350    0.33820   1.00
C1       0.25000    0.25000    0.14480   1.00
C1       0.25000    0.14480    0.25000   1.00
C1       0.35520    0.25000    0.25000   1.00
C1       0.14480    0.25000    0.25000   1.00
C1       0.25000    0.35520    0.25000   1.00
C1       0.25000    0.25000    0.35520   1.00
O1       0.75000    0.75000    0.25000   1.00
Zn1      0.78280    0.71720    0.21720   1.00
Zn1      0.71720    0.78280    0.21720   1.00
Zn1      0.71720    0.71720    0.28280   1.00
Zn1      0.78280    0.78280    0.28280   1.00
O2       0.77350    0.72650    0.16180   1.00
O2       0.77350    0.66180    0.22650   1.00
O2       0.83820    0.72650    0.22650   1.00
O2       0.72650    0.77350    0.16180   1.00
O2       0.66180    0.77350    0.22650   1.00
O2       0.72650    0.83820    0.22650   1.00
O2       0.72650    0.66180    0.27350   1.00
O2       0.66180    0.72650    0.27350   1.00
O2       0.72650    0.72650    0.33820   1.00
O2       0.83820    0.77350    0.27350   1.00
O2       0.77350    0.83820    0.27350   1.00
O2       0.77350    0.77350    0.33820   1.00
C1       0.75000    0.75000    0.14480   1.00
C1       0.75000    0.64480    0.25000   1.00
C1       0.85520    0.75000    0.25000   1.00
C1       0.64480    0.75000    0.25000   1.00
C1       0.75000    0.85520    0.25000   1.00
C1       0.75000    0.75000    0.35520   1.00
O1       0.75000    0.25000    0.75000   1.00
Zn1      0.78280    0.21720    0.71720   1.00
Zn1      0.71720    0.28280    0.71720   1.00
Zn1      0.71720    0.21720    0.78280   1.00
Zn1      0.78280    0.28280    0.78280   1.00
O2       0.77350    0.22650    0.66180   1.00
O2       0.77350    0.16180    0.72650   1.00
O2       0.83820    0.22650    0.72650   1.00
O2       0.72650    0.27350    0.66180   1.00
O2       0.66180    0.27350    0.72650   1.00
O2       0.72650    0.33820    0.72650   1.00
O2       0.72650    0.16180    0.77350   1.00
O2       0.66180    0.22650    0.77350   1.00
O2       0.72650    0.22650    0.83820   1.00
O2       0.83820    0.27350    0.77350   1.00
O2       0.77350    0.33820    0.77350   1.00
O2       0.77350    0.27350    0.83820   1.00
C1       0.75000    0.25000    0.64480   1.00
C1       0.75000    0.14480    0.75000   1.00
C1       0.85520    0.25000    0.75000   1.00
C1       0.64480    0.25000    0.75000   1.00
C1       0.75000    0.35520    0.75000   1.00
C1       0.75000    0.25000    0.85520   1.00
O1       0.25000    0.75000    0.75000   1.00
Zn1      0.28280    0.71720    0.71720   1.00
Zn1      0.21720    0.78280    0.71720   1.00
Zn1      0.21720    0.71720    0.78280   1.00
Zn1      0.28280    0.78280    0.78280   1.00
O2       0.27350    0.72650    0.66180   1.00
O2       0.27350    0.66180    0.72650   1.00
O2       0.33820    0.72650    0.72650   1.00
O2       0.22650    0.77350    0.66180   1.00
O2       0.16180    0.77350    0.72650   1.00
O2       0.22650    0.83820    0.72650   1.00
O2       0.22650    0.66180    0.77350   1.00
O2       0.16180    0.72650    0.77350   1.00
O2       0.22650    0.72650    0.83820   1.00
O2       0.33820    0.77350    0.77350   1.00
O2       0.27350    0.83820    0.77350   1.00
O2       0.27350    0.77350    0.83820   1.00
C1       0.25000    0.75000    0.64480   1.00
C1       0.25000    0.64480    0.75000   1.00
C1       0.35520    0.75000    0.75000   1.00
C1       0.14480    0.75000    0.75000   1.00
C1       0.25000    0.85520    0.75000   1.00
C1       0.25000    0.75000    0.85520   1.00
C4       0.75003    0.75009    0.97915   1.00
C4       0.74997    0.74991    1.02085   1.00
C3       0.73207    0.77989    0.95708   1.00
C3       0.78326    0.76137    1.04225   1.00
C3       0.76850    0.71980    0.95816   1.00
C3a      0.71624    0.73869    1.04263   1.00
C2       0.75048    0.74857    0.89483   1.00
C2       0.74983    0.75146    1.10517   1.00
C3       0.73231    0.77907    0.91566   1.00
C3       0.78312    0.76212    1.08359   1.00
C3       0.76856    0.71898    0.91680   1.00
C3       0.71667    0.73976    1.08415   1.00
H1       0.71778    0.80384    0.97192   1.00
H1       0.80945    0.77007    1.02685   1.00
H1       0.71819    0.80236    0.89968   1.00
H1       0.80920    0.77119    1.09895   1.00
H1       0.78256    0.69497    0.90179   1.00
H1       0.69103    0.73108    1.10043   1.00
C5       0.67957    0.72462    1.02239   1.00
H1       0.78207    0.69608    0.97401   1.00
H2       0.65526    0.72098    1.04354   1.00
H2       0.66987    0.74700    1.00103   1.00
N1       0.68645    0.68724    1.00292   1.00
C6       0.69808    0.65388    1.02012   1.00
C6       0.68195    0.67984    0.96460   1.00
C6       0.70140    0.62488    0.99243   1.00
C6       0.69116    0.64140    0.95711   1.00
H3       0.70407    0.65076    1.05099   1.00
H3       0.67297    0.70118    0.94309   1.00
H3       0.71027    0.59502    0.99741   1.00
H3       0.69051    0.62705    0.92903   1.00
C4       0.75009    0.97915    0.75003   1.00
C4       0.74991    1.02085    0.74997   1.00
C3       0.77989    0.95708    0.73207   1.00
C3       0.76137    1.04225    0.78326   1.00
C3       0.71980    0.95816    0.76850   1.00
C3a      0.73869    1.04263    0.71624   1.00
C2       0.74857    0.89483    0.75048   1.00
C2       0.75146    1.10517    0.74983   1.00
C3       0.77907    0.91566    0.73231   1.00
C3       0.76212    1.08359    0.78312   1.00
C3       0.71898    0.91680    0.76856   1.00
C3       0.73976    1.08415    0.71667   1.00
H1       0.80384    0.97192    0.71778   1.00
H1       0.77007    1.02685    0.80945   1.00
H1       0.80236    0.89968    0.71819   1.00
H1       0.77119    1.09895    0.80920   1.00
H1       0.69497    0.90179    0.78256   1.00
H1       0.73108    1.10043    0.69103   1.00
C5       0.72462    1.02239    0.67957   1.00
H1       0.69608    0.97401    0.78207   1.00
H2       0.72098    1.04354    0.65526   1.00
H2       0.74700    1.00103    0.66987   1.00
N1       0.68724    1.00292    0.68645   1.00
C6       0.65388    1.02012    0.69808   1.00
C6       0.67984    0.96460    0.68195   1.00
C6       0.62488    0.99243    0.70140   1.00
C6       0.64140    0.95711    0.69116   1.00
H3       0.65076    1.05099    0.70407   1.00
H3       0.70118    0.94309    0.67297   1.00
H3       0.59502    0.99741    0.71027   1.00
H3       0.62705    0.92903    0.69051   1.00
C4       0.52085    0.75003    0.74991   1.00
C4       0.47915    0.74997    0.75009   1.00
C3       0.54292    0.73207    0.72011   1.00
C3       0.45775    0.78326    0.73863   1.00
C3       0.54184    0.76850    0.78020   1.00
C3a      0.45737    0.71624    0.76131   1.00
C2       0.60517    0.75048    0.75143   1.00
C2       0.39483    0.74983    0.74854   1.00
C3       0.58434    0.73231    0.72093   1.00
C3       0.41641    0.78312    0.73788   1.00
C3       0.58320    0.76856    0.78102   1.00
C3       0.41585    0.71667    0.76024   1.00
H1       0.52808    0.71778    0.69616   1.00
H1       0.47315    0.80945    0.72993   1.00
H1       0.60032    0.71819    0.69764   1.00
H1       0.40105    0.80920    0.72881   1.00
H1       0.59821    0.78256    0.80503   1.00
H1       0.39957    0.69103    0.76892   1.00
C5       0.47761    0.67957    0.77538   1.00
H1       0.52599    0.78207    0.80392   1.00
H2       0.45646    0.65526    0.77902   1.00
H2       0.49897    0.66987    0.75300   1.00
N1       0.49708    0.68645    0.81276   1.00
C6       0.47988    0.69808    0.84612   1.00
C6       0.53540    0.68195    0.82016   1.00
C6       0.50757    0.70140    0.87512   1.00
C6       0.54289    0.69116    0.85860   1.00
H3       0.44901    0.70407    0.84924   1.00
H3       0.55691    0.67297    0.79882   1.00
H3       0.50259    0.71027    0.90498   1.00
H3       0.57097    0.69051    0.87295   1.00
C4       0.97915    0.75003    0.75009   1.00
C4       1.02085    0.74997    0.74991   1.00
C3       0.95708    0.73207    0.77989   1.00
C3       1.04225    0.78326    0.76137   1.00
C3       0.95816    0.76850    0.71980   1.00
C3a      1.04263    0.71624    0.73869   1.00
C2       0.89483    0.75048    0.74857   1.00
C2       1.10517    0.74983    0.75146   1.00
C3       0.91566    0.73231    0.77907   1.00
C3       1.08359    0.78312    0.76212   1.00
C3       0.91680    0.76856    0.71898   1.00
C3       1.08415    0.71667    0.73976   1.00
H1       0.97192    0.71778    0.80384   1.00
H1       1.02685    0.80945    0.77007   1.00
H1       0.89968    0.71819    0.80236   1.00
H1       1.09895    0.80920    0.77119   1.00
H1       0.90179    0.78256    0.69497   1.00
H1       1.10043    0.69103    0.73108   1.00
C5       1.02239    0.67957    0.72462   1.00
H1       0.97401    0.78207    0.69608   1.00
H2       1.04354    0.65526    0.72098   1.00
H2       1.00103    0.66987    0.74700   1.00
N1       1.00292    0.68645    0.68724   1.00
C6       1.02012    0.69808    0.65388   1.00
C6       0.96460    0.68195    0.67984   1.00
C6       0.99243    0.70140    0.62488   1.00
C6       0.95711    0.69116    0.64140   1.00
H3       1.05099    0.70407    0.65076   1.00
H3       0.94309    0.67297    0.70118   1.00
H3       0.99741    0.71027    0.59502   1.00
H3       0.92903    0.69051    0.62705   1.00
C4       0.74991    0.52085    0.75003   1.00
C4       0.75009    0.47915    0.74997   1.00
C3       0.72011    0.54292    0.73207   1.00
C3       0.73863    0.45775    0.78326   1.00
C3       0.78020    0.54184    0.76850   1.00
C3a      0.76131    0.45737    0.71624   1.00
C2       0.75143    0.60517    0.75048   1.00
C2       0.74854    0.39483    0.74983   1.00
C3       0.72093    0.58434    0.73231   1.00
C3       0.73788    0.41641    0.78312   1.00
C3       0.78102    0.58320    0.76856   1.00
C3       0.76024    0.41585    0.71667   1.00
H1       0.69616    0.52808    0.71778   1.00
H1       0.72993    0.47315    0.80945   1.00
H1       0.69764    0.60032    0.71819   1.00
H1       0.72881    0.40105    0.80920   1.00
H1       0.80503    0.59821    0.78256   1.00
H1       0.76892    0.39957    0.69103   1.00
C5       0.77538    0.47761    0.67957   1.00
H1       0.80392    0.52599    0.78207   1.00
H2       0.77902    0.45646    0.65526   1.00
H2       0.75300    0.49897    0.66987   1.00
N1       0.81276    0.49708    0.68645   1.00
C6       0.84612    0.47988    0.69808   1.00
C6       0.82016    0.53540    0.68195   1.00
C6       0.87512    0.50757    0.70140   1.00
C6       0.85860    0.54289    0.69116   1.00
H3       0.84924    0.44901    0.70407   1.00
H3       0.79882    0.55691    0.67297   1.00
H3       0.90498    0.50259    0.71027   1.00
H3       0.87295    0.57097    0.69051   1.00
C4       0.75003    0.74991    0.52085   1.00
C4       0.74997    0.75009    0.47915   1.00
C3       0.73207    0.72011    0.54292   1.00
C3       0.78326    0.73863    0.45775   1.00
C3       0.76850    0.78020    0.54184   1.00
C3a      0.71624    0.76131    0.45737   1.00
C2       0.75048    0.75143    0.60517   1.00
C2       0.74983    0.74854    0.39483   1.00
C3       0.73231    0.72093    0.58434   1.00
C3       0.78312    0.73788    0.41641   1.00
C3       0.76856    0.78102    0.58320   1.00
C3       0.71667    0.76024    0.41585   1.00
H1       0.71778    0.69616    0.52808   1.00
H1       0.80945    0.72993    0.47315   1.00
H1       0.71819    0.69764    0.60032   1.00
H1       0.80920    0.72881    0.40105   1.00
H1       0.78256    0.80503    0.59821   1.00
H1       0.69103    0.76892    0.39957   1.00
C5       0.67957    0.77538    0.47761   1.00
H1       0.78207    0.80392    0.52599   1.00
H2       0.65526    0.77902    0.45646   1.00
H2       0.66987    0.75300    0.49897   1.00
N1       0.68645    0.81276    0.49708   1.00
C6       0.69808    0.84612    0.47988   1.00
C6       0.68195    0.82016    0.53540   1.00
C6       0.70140    0.87512    0.50757   1.00
C6       0.69116    0.85860    0.54289   1.00
H3       0.70407    0.84924    0.44901   1.00
H3       0.67297    0.79882    0.55691   1.00
H3       0.71027    0.90498    0.50259   1.00
H3       0.69051    0.87295    0.57097   1.00
C4       0.25003    0.25009    0.97915   1.00
C4       0.24997    0.24991    1.02085   1.00
C3       0.23207    0.27989    0.95708   1.00
C3       0.28326    0.26137    1.04225   1.00
C3       0.26850    0.21980    0.95816   1.00
C3a      0.21624    0.23869    1.04263   1.00
C2       0.25048    0.24857    0.89483   1.00
C2       0.24983    0.25146    1.10517   1.00
C3       0.23231    0.27907    0.91566   1.00
C3       0.28312    0.26212    1.08359   1.00
C3       0.26856    0.21898    0.91680   1.00
C3       0.21667    0.23976    1.08415   1.00
H1       0.21778    0.30384    0.97192   1.00
H1       0.30945    0.27007    1.02685   1.00
H1       0.21819    0.30236    0.89968   1.00
H1       0.30920    0.27119    1.09895   1.00
H1       0.28256    0.19497    0.90179   1.00
H1       0.19103    0.23108    1.10043   1.00
C5       0.17957    0.22462    1.02239   1.00
H1       0.28207    0.19608    0.97401   1.00
H2       0.15526    0.22098    1.04354   1.00
H2       0.16987    0.24700    1.00103   1.00
N1       0.18645    0.18724    1.00292   1.00
C6       0.19808    0.15388    1.02012   1.00
C6       0.18195    0.17984    0.96460   1.00
C6       0.20140    0.12488    0.99243   1.00
C6       0.19116    0.14140    0.95711   1.00
H3       0.20407    0.15076    1.05099   1.00
H3       0.17297    0.20118    0.94309   1.00
H3       0.21027    0.09502    0.99741   1.00
H3       0.19051    0.12705    0.92903   1.00
C4       0.25009    0.47915    0.75003   1.00
C4       0.24991    0.52085    0.74997   1.00
C3       0.27989    0.45708    0.73207   1.00
C3       0.26137    0.54225    0.78326   1.00
C3       0.21980    0.45816    0.76850   1.00
C3a      0.23869    0.54263    0.71624   1.00
C2       0.24857    0.39483    0.75048   1.00
C2       0.25146    0.60517    0.74983   1.00
C3       0.27907    0.41566    0.73231   1.00
C3       0.26212    0.58359    0.78312   1.00
C3       0.21898    0.41680    0.76856   1.00
C3       0.23976    0.58415    0.71667   1.00
H1       0.30384    0.47192    0.71778   1.00
H1       0.27007    0.52685    0.80945   1.00
H1       0.30236    0.39968    0.71819   1.00
H1       0.27119    0.59895    0.80920   1.00
H1       0.19497    0.40179    0.78256   1.00
H1       0.23108    0.60043    0.69103   1.00
C5       0.22462    0.52239    0.67957   1.00
H1       0.19608    0.47401    0.78207   1.00
H2       0.22098    0.54354    0.65526   1.00
H2       0.24700    0.50103    0.66987   1.00
N1       0.18724    0.50292    0.68645   1.00
C6       0.15388    0.52012    0.69808   1.00
C6       0.17984    0.46460    0.68195   1.00
C6       0.12488    0.49243    0.70140   1.00
C6       0.14140    0.45711    0.69116   1.00
H3       0.15076    0.55099    0.70407   1.00
H3       0.20118    0.44309    0.67297   1.00
H3       0.09502    0.49741    0.71027   1.00
H3       0.12705    0.42903    0.69051   1.00
C4       0.02085    0.25003    0.74991   1.00
C4       -0.02085   0.24997    0.75009   1.00
C3       0.04292    0.23207    0.72011   1.00
C3       -0.04225   0.28326    0.73863   1.00
C3       0.04184    0.26850    0.78020   1.00
C3a      -0.04263   0.21624    0.76131   1.00
C2       0.10517    0.25048    0.75143   1.00
C2       -0.10517   0.24983    0.74854   1.00
C3       0.08434    0.23231    0.72093   1.00
C3       -0.08359   0.28312    0.73788   1.00
C3       0.08320    0.26856    0.78102   1.00
C3       -0.08415   0.21667    0.76024   1.00
H1       0.02808    0.21778    0.69616   1.00
H1       -0.02685   0.30945    0.72993   1.00
H1       0.10032    0.21819    0.69764   1.00
H1       -0.09895   0.30920    0.72881   1.00
H1       0.09821    0.28256    0.80503   1.00
H1       -0.10043   0.19103    0.76892   1.00
C5       -0.02239   0.17957    0.77538   1.00
H1       0.02599    0.28207    0.80392   1.00
H2       -0.04354   0.15526    0.77902   1.00
H2       -0.00103   0.16987    0.75300   1.00
N1       -0.00292   0.18645    0.81276   1.00
C6       -0.02012   0.19808    0.84612   1.00
C6       0.03540    0.18195    0.82016   1.00
C6       0.00757    0.20140    0.87512   1.00
C6       0.04289    0.19116    0.85860   1.00
H3       -0.05099   0.20407    0.84924   1.00
H3       0.05691    0.17297    0.79882   1.00
H3       0.00259    0.21027    0.90498   1.00
H3       0.07097    0.19051    0.87295   1.00
C4       0.47915    0.25003    0.75009   1.00
C4       0.52085    0.24997    0.74991   1.00
C3       0.45708    0.23207    0.77989   1.00
C3       0.54225    0.28326    0.76137   1.00
C3       0.45816    0.26850    0.71980   1.00
C3a      0.54263    0.21624    0.73869   1.00
C2       0.39483    0.25048    0.74857   1.00
C2       0.60517    0.24983    0.75146   1.00
C3       0.41566    0.23231    0.77907   1.00
C3       0.58359    0.28312    0.76212   1.00
C3       0.41680    0.26856    0.71898   1.00
C3       0.58415    0.21667    0.73976   1.00
H1       0.47192    0.21778    0.80384   1.00
H1       0.52685    0.30945    0.77007   1.00
H1       0.39968    0.21819    0.80236   1.00
H1       0.59895    0.30920    0.77119   1.00
H1       0.40179    0.28256    0.69497   1.00
H1       0.60043    0.19103    0.73108   1.00
C5       0.52239    0.17957    0.72462   1.00
H1       0.47401    0.28207    0.69608   1.00
H2       0.54354    0.15526    0.72098   1.00
H2       0.50103    0.16987    0.74700   1.00
N1       0.50292    0.18645    0.68724   1.00
C6       0.52012    0.19808    0.65388   1.00
C6       0.46460    0.18195    0.67984   1.00
C6       0.49243    0.20140    0.62488   1.00
C6       0.45711    0.19116    0.64140   1.00
H3       0.55099    0.20407    0.65076   1.00
H3       0.44309    0.17297    0.70118   1.00
H3       0.49741    0.21027    0.59502   1.00
H3       0.42903    0.19051    0.62705   1.00
C4       0.24991    0.02085    0.75003   1.00
C4       0.25009    -0.02085   0.74997   1.00
C3       0.22011    0.04292    0.73207   1.00
C3       0.23863    -0.04225   0.78326   1.00
C3       0.28020    0.04184    0.76850   1.00
C3a      0.26131    -0.04263   0.71624   1.00
C2       0.25143    0.10517    0.75048   1.00
C2       0.24854    -0.10517   0.74983   1.00
C3       0.22093    0.08434    0.73231   1.00
C3       0.23788    -0.08359   0.78312   1.00
C3       0.28102    0.08320    0.76856   1.00
C3       0.26024    -0.08415   0.71667   1.00
H1       0.19616    0.02808    0.71778   1.00
H1       0.22993    -0.02685   0.80945   1.00
H1       0.19764    0.10032    0.71819   1.00
H1       0.22881    -0.09895   0.80920   1.00
H1       0.30503    0.09821    0.78256   1.00
H1       0.26892    -0.10043   0.69103   1.00
C5       0.27538    -0.02239   0.67957   1.00
H1       0.30392    0.02599    0.78207   1.00
H2       0.27902    -0.04354   0.65526   1.00
H2       0.25300    -0.00103   0.66987   1.00
N1       0.31276    -0.00292   0.68645   1.00
C6       0.34612    -0.02012   0.69808   1.00
C6       0.32016    0.03540    0.68195   1.00
C6       0.37512    0.00757    0.70140   1.00
C6       0.35860    0.04289    0.69116   1.00
H3       0.34924    -0.05099   0.70407   1.00
H3       0.29882    0.05691    0.67297   1.00
H3       0.40498    0.00259    0.71027   1.00
H3       0.37295    0.07097    0.69051   1.00
C4       0.25003    0.24991    0.52085   1.00
C4       0.24997    0.25009    0.47915   1.00
C3       0.23207    0.22011    0.54292   1.00
C3       0.28326    0.23863    0.45775   1.00
C3       0.26850    0.28020    0.54184   1.00
C3a      0.21624    0.26131    0.45737   1.00
C2       0.25048    0.25143    0.60517   1.00
C2       0.24983    0.24854    0.39483   1.00
C3       0.23231    0.22093    0.58434   1.00
C3       0.28312    0.23788    0.41641   1.00
C3       0.26856    0.28102    0.58320   1.00
C3       0.21667    0.26024    0.41585   1.00
H1       0.21778    0.19616    0.52808   1.00
H1       0.30945    0.22993    0.47315   1.00
H1       0.21819    0.19764    0.60032   1.00
H1       0.30920    0.22881    0.40105   1.00
H1       0.28256    0.30503    0.59821   1.00
H1       0.19103    0.26892    0.39957   1.00
C5       0.17957    0.27538    0.47761   1.00
H1       0.28207    0.30392    0.52599   1.00
H2       0.15526    0.27902    0.45646   1.00
H2       0.16987    0.25300    0.49897   1.00
N1       0.18645    0.31276    0.49708   1.00
C6       0.19808    0.34612    0.47988   1.00
C6       0.18195    0.32016    0.53540   1.00
C6       0.20140    0.37512    0.50757   1.00
C6       0.19116    0.35860    0.54289   1.00
H3       0.20407    0.34924    0.44901   1.00
H3       0.17297    0.29882    0.55691   1.00
H3       0.21027    0.40498    0.50259   1.00
H3       0.19051    0.37295    0.57097   1.00
C4       0.25003    0.75009    0.47915   1.00
C4       0.24997    0.74991    0.52085   1.00
C3       0.23207    0.77989    0.45708   1.00
C3       0.28326    0.76137    0.54225   1.00
C3       0.26850    0.71980    0.45816   1.00
C3a      0.21624    0.73869    0.54263   1.00
C2       0.25048    0.74857    0.39483   1.00
C2       0.24983    0.75146    0.60517   1.00
C3       0.23231    0.77907    0.41566   1.00
C3       0.28312    0.76212    0.58359   1.00
C3       0.26856    0.71898    0.41680   1.00
C3       0.21667    0.73976    0.58415   1.00
H1       0.21778    0.80384    0.47192   1.00
H1       0.30945    0.77007    0.52685   1.00
H1       0.21819    0.80236    0.39968   1.00
H1       0.30920    0.77119    0.59895   1.00
H1       0.28256    0.69497    0.40179   1.00
H1       0.19103    0.73108    0.60043   1.00
C5       0.17957    0.72462    0.52239   1.00
H1       0.28207    0.69608    0.47401   1.00
H2       0.15526    0.72098    0.54354   1.00
H2       0.16987    0.74700    0.50103   1.00
N1       0.18645    0.68724    0.50292   1.00
C6       0.19808    0.65388    0.52012   1.00
C6       0.18195    0.67984    0.46460   1.00
C6       0.20140    0.62488    0.49243   1.00
C6       0.19116    0.64140    0.45711   1.00
H3       0.20407    0.65076    0.55099   1.00
H3       0.17297    0.70118    0.44309   1.00
H3       0.21027    0.59502    0.49741   1.00
H3       0.19051    0.62705    0.42903   1.00
C4       0.25009    0.97915    0.25003   1.00
C4       0.24991    1.02085    0.24997   1.00
C3       0.27989    0.95708    0.23207   1.00
C3       0.26137    1.04225    0.28326   1.00
C3       0.21980    0.95816    0.26850   1.00
C3a      0.23869    1.04263    0.21624   1.00
C2       0.24857    0.89483    0.25048   1.00
C2       0.25146    1.10517    0.24983   1.00
C3       0.27907    0.91566    0.23231   1.00
C3       0.26212    1.08359    0.28312   1.00
C3       0.21898    0.91680    0.26856   1.00
C3       0.23976    1.08415    0.21667   1.00
H1       0.30384    0.97192    0.21778   1.00
H1       0.27007    1.02685    0.30945   1.00
H1       0.30236    0.89968    0.21819   1.00
H1       0.27119    1.09895    0.30920   1.00
H1       0.19497    0.90179    0.28256   1.00
H1       0.23108    1.10043    0.19103   1.00
C5       0.22462    1.02239    0.17957   1.00
H1       0.19608    0.97401    0.28207   1.00
H2       0.22098    1.04354    0.15526   1.00
H2       0.24700    1.00103    0.16987   1.00
N1       0.18724    1.00292    0.18645   1.00
C6       0.15388    1.02012    0.19808   1.00
C6       0.17984    0.96460    0.18195   1.00
C6       0.12488    0.99243    0.20140   1.00
C6       0.14140    0.95711    0.19116   1.00
H3       0.15076    1.05099    0.20407   1.00
H3       0.20118    0.94309    0.17297   1.00
H3       0.09502    0.99741    0.21027   1.00
H3       0.12705    0.92903    0.19051   1.00
C4       0.02085    0.75003    0.24991   1.00
C4       -0.02085   0.74997    0.25009   1.00
C3       0.04292    0.73207    0.22011   1.00
C3       -0.04225   0.78326    0.23863   1.00
C3       0.04184    0.76850    0.28020   1.00
C3a      -0.04263   0.71624    0.26131   1.00
C2       0.10517    0.75048    0.25143   1.00
C2       -0.10517   0.74983    0.24854   1.00
C3       0.08434    0.73231    0.22093   1.00
C3       -0.08359   0.78312    0.23788   1.00
C3       0.08320    0.76856    0.28102   1.00
C3       -0.08415   0.71667    0.26024   1.00
H1       0.02808    0.71778    0.19616   1.00
H1       -0.02685   0.80945    0.22993   1.00
H1       0.10032    0.71819    0.19764   1.00
H1       -0.09895   0.80920    0.22881   1.00
H1       0.09821    0.78256    0.30503   1.00
H1       -0.10043   0.69103    0.26892   1.00
C5       -0.02239   0.67957    0.27538   1.00
H1       0.02599    0.78207    0.30392   1.00
H2       -0.04354   0.65526    0.27902   1.00
H2       -0.00103   0.66987    0.25300   1.00
N1       -0.00292   0.68645    0.31276   1.00
C6       -0.02012   0.69808    0.34612   1.00
C6       0.03540    0.68195    0.32016   1.00
C6       0.00757    0.70140    0.37512   1.00
C6       0.04289    0.69116    0.35860   1.00
H3       -0.05099   0.70407    0.34924   1.00
H3       0.05691    0.67297    0.29882   1.00
H3       0.00259    0.71027    0.40498   1.00
H3       0.07097    0.69051    0.37295   1.00
C4       0.47915    0.75003    0.25009   1.00
C4       0.52085    0.74997    0.24991   1.00
C3       0.45708    0.73207    0.27989   1.00
C3       0.54225    0.78326    0.26137   1.00
C3       0.45816    0.76850    0.21980   1.00
C3a      0.54263    0.71624    0.23869   1.00
C2       0.39483    0.75048    0.24857   1.00
C2       0.60517    0.74983    0.25146   1.00
C3       0.41566    0.73231    0.27907   1.00
C3       0.58359    0.78312    0.26212   1.00
C3       0.41680    0.76856    0.21898   1.00
C3       0.58415    0.71667    0.23976   1.00
H1       0.47192    0.71778    0.30384   1.00
H1       0.52685    0.80945    0.27007   1.00
H1       0.39968    0.71819    0.30236   1.00
H1       0.59895    0.80920    0.27119   1.00
H1       0.40179    0.78256    0.19497   1.00
H1       0.60043    0.69103    0.23108   1.00
C5       0.52239    0.67957    0.22462   1.00
H1       0.47401    0.78207    0.19608   1.00
H2       0.54354    0.65526    0.22098   1.00
H2       0.50103    0.66987    0.24700   1.00
N1       0.50292    0.68645    0.18724   1.00
C6       0.52012    0.69808    0.15388   1.00
C6       0.46460    0.68195    0.17984   1.00
C6       0.49243    0.70140    0.12488   1.00
C6       0.45711    0.69116    0.14140   1.00
H3       0.55099    0.70407    0.15076   1.00
H3       0.44309    0.67297    0.20118   1.00
H3       0.49741    0.71027    0.09502   1.00
H3       0.42903    0.69051    0.12705   1.00
C4       0.24991    0.52085    0.25003   1.00
C4       0.25009    0.47915    0.24997   1.00
C3       0.22011    0.54292    0.23207   1.00
C3       0.23863    0.45775    0.28326   1.00
C3       0.28020    0.54184    0.26850   1.00
C3a      0.26131    0.45737    0.21624   1.00
C2       0.25143    0.60517    0.25048   1.00
C2       0.24854    0.39483    0.24983   1.00
C3       0.22093    0.58434    0.23231   1.00
C3       0.23788    0.41641    0.28312   1.00
C3       0.28102    0.58320    0.26856   1.00
C3       0.26024    0.41585    0.21667   1.00
H1       0.19616    0.52808    0.21778   1.00
H1       0.22993    0.47315    0.30945   1.00
H1       0.19764    0.60032    0.21819   1.00
H1       0.22881    0.40105    0.30920   1.00
H1       0.30503    0.59821    0.28256   1.00
H1       0.26892    0.39957    0.19103   1.00
C5       0.27538    0.47761    0.17957   1.00
H1       0.30392    0.52599    0.28207   1.00
H2       0.27902    0.45646    0.15526   1.00
H2       0.25300    0.49897    0.16987   1.00
N1       0.31276    0.49708    0.18645   1.00
C6       0.34612    0.47988    0.19808   1.00
C6       0.32016    0.53540    0.18195   1.00
C6       0.37512    0.50757    0.20140   1.00
C6       0.35860    0.54289    0.19116   1.00
H3       0.34924    0.44901    0.20407   1.00
H3       0.29882    0.55691    0.17297   1.00
H3       0.40498    0.50259    0.21027   1.00
H3       0.37295    0.57097    0.19051   1.00
C4       0.25003    0.74991    0.02085   1.00
C4       0.24997    0.75009    -0.02085   1.00
C3       0.23207    0.72011    0.04292   1.00
C3       0.28326    0.73863    -0.04225   1.00
C3       0.26850    0.78020    0.04184   1.00
C3a      0.21624    0.76131    -0.04263   1.00
C2       0.25048    0.75143    0.10517   1.00
C2       0.24983    0.74854    -0.10517   1.00
C3       0.23231    0.72093    0.08434   1.00
C3       0.28312    0.73788    -0.08359   1.00
C3       0.26856    0.78102    0.08320   1.00
C3       0.21667    0.76024    -0.08415   1.00
H1       0.21778    0.69616    0.02808   1.00
H1       0.30945    0.72993    -0.02685   1.00
H1       0.21819    0.69764    0.10032   1.00
H1       0.30920    0.72881    -0.09895   1.00
H1       0.28256    0.80503    0.09821   1.00
H1       0.19103    0.76892    -0.10043   1.00
C5       0.17957    0.77538    -0.02239   1.00
H1       0.28207    0.80392    0.02599   1.00
H2       0.15526    0.77902    -0.04354   1.00
H2       0.16987    0.75300    -0.00103   1.00
N1       0.18645    0.81276    -0.00292   1.00
C6       0.19808    0.84612    -0.02012   1.00
C6       0.18195    0.82016    0.03540   1.00
C6       0.20140    0.87512    0.00757   1.00
C6       0.19116    0.85860    0.04289   1.00
H3       0.20407    0.84924    -0.05099   1.00
H3       0.17297    0.79882    0.05691   1.00
H3       0.21027    0.90498    0.00259   1.00
H3       0.19051    0.87295    0.07097   1.00
C4       0.75003    0.25009    0.47915   1.00
C4       0.74997    0.24991    0.52085   1.00
C3       0.73207    0.27989    0.45708   1.00
C3       0.78326    0.26137    0.54225   1.00
C3       0.76850    0.21980    0.45816   1.00
C3a      0.71624    0.23869    0.54263   1.00
C2       0.75048    0.24857    0.39483   1.00
C2       0.74983    0.25146    0.60517   1.00
C3       0.73231    0.27907    0.41566   1.00
C3       0.78312    0.26212    0.58359   1.00
C3       0.76856    0.21898    0.41680   1.00
C3       0.71667    0.23976    0.58415   1.00
H1       0.71778    0.30384    0.47192   1.00
H1       0.80945    0.27007    0.52685   1.00
H1       0.71819    0.30236    0.39968   1.00
H1       0.80920    0.27119    0.59895   1.00
H1       0.78256    0.19497    0.40179   1.00
H1       0.69103    0.23108    0.60043   1.00
C5       0.67957    0.22462    0.52239   1.00
H1       0.78207    0.19608    0.47401   1.00
H2       0.65526    0.22098    0.54354   1.00
H2       0.66987    0.24700    0.50103   1.00
N1       0.68645    0.18724    0.50292   1.00
C6       0.69808    0.15388    0.52012   1.00
C6       0.68195    0.17984    0.46460   1.00
C6       0.70140    0.12488    0.49243   1.00
C6       0.69116    0.14140    0.45711   1.00
H3       0.70407    0.15076    0.55099   1.00
H3       0.67297    0.20118    0.44309   1.00
H3       0.71027    0.09502    0.49741   1.00
H3       0.69051    0.12705    0.42903   1.00
C4       0.75009    0.47915    0.25003   1.00
C4       0.74991    0.52085    0.24997   1.00
C3       0.77989    0.45708    0.23207   1.00
C3       0.76137    0.54225    0.28326   1.00
C3       0.71980    0.45816    0.26850   1.00
C3a      0.73869    0.54263    0.21624   1.00
C2       0.74857    0.39483    0.25048   1.00
C2       0.75146    0.60517    0.24983   1.00
C3       0.77907    0.41566    0.23231   1.00
C3       0.76212    0.58359    0.28312   1.00
C3       0.71898    0.41680    0.26856   1.00
C3       0.73976    0.58415    0.21667   1.00
H1       0.80384    0.47192    0.21778   1.00
H1       0.77007    0.52685    0.30945   1.00
H1       0.80236    0.39968    0.21819   1.00
H1       0.77119    0.59895    0.30920   1.00
H1       0.69497    0.40179    0.28256   1.00
H1       0.73108    0.60043    0.19103   1.00
C5       0.72462    0.52239    0.17957   1.00
H1       0.69608    0.47401    0.28207   1.00
H2       0.72098    0.54354    0.15526   1.00
H2       0.74700    0.50103    0.16987   1.00
N1       0.68724    0.50292    0.18645   1.00
C6       0.65388    0.52012    0.19808   1.00
C6       0.67984    0.46460    0.18195   1.00
C6       0.62488    0.49243    0.20140   1.00
C6       0.64140    0.45711    0.19116   1.00
H3       0.65076    0.55099    0.20407   1.00
H3       0.70118    0.44309    0.17297   1.00
H3       0.59502    0.49741    0.21027   1.00
H3       0.62705    0.42903    0.19051   1.00
C4       0.52085    0.25003    0.24991   1.00
C4       0.47915    0.24997    0.25009   1.00
C3       0.54292    0.23207    0.22011   1.00
C3       0.45775    0.28326    0.23863   1.00
C3       0.54184    0.26850    0.28020   1.00
C3a      0.45737    0.21624    0.26131   1.00
C2       0.60517    0.25048    0.25143   1.00
C2       0.39483    0.24983    0.24854   1.00
C3       0.58434    0.23231    0.22093   1.00
C3       0.41641    0.28312    0.23788   1.00
C3       0.58320    0.26856    0.28102   1.00
C3       0.41585    0.21667    0.26024   1.00
H1       0.52808    0.21778    0.19616   1.00
H1       0.47315    0.30945    0.22993   1.00
H1       0.60032    0.21819    0.19764   1.00
H1       0.40105    0.30920    0.22881   1.00
H1       0.59821    0.28256    0.30503   1.00
H1       0.39957    0.19103    0.26892   1.00
C5       0.47761    0.17957    0.27538   1.00
H1       0.52599    0.28207    0.30392   1.00
H2       0.45646    0.15526    0.27902   1.00
H2       0.49897    0.16987    0.25300   1.00
N1       0.49708    0.18645    0.31276   1.00
C6       0.47988    0.19808    0.34612   1.00
C6       0.53540    0.18195    0.32016   1.00
C6       0.50757    0.20140    0.37512   1.00
C6       0.54289    0.19116    0.35860   1.00
H3       0.44901    0.20407    0.34924   1.00
H3       0.55691    0.17297    0.29882   1.00
H3       0.50259    0.21027    0.40498   1.00
H3       0.57097    0.19051    0.37295   1.00
C4       0.97915    0.25003    0.25009   1.00
C4       1.02085    0.24997    0.24991   1.00
C3       0.95708    0.23207    0.27989   1.00
C3       1.04225    0.28326    0.26137   1.00
C3       0.95816    0.26850    0.21980   1.00
C3a      1.04263    0.21624    0.23869   1.00
C2       0.89483    0.25048    0.24857   1.00
C2       1.10517    0.24983    0.25146   1.00
C3       0.91566    0.23231    0.27907   1.00
C3       1.08359    0.28312    0.26212   1.00
C3       0.91680    0.26856    0.21898   1.00
C3       1.08415    0.21667    0.23976   1.00
H1       0.97192    0.21778    0.30384   1.00
H1       1.02685    0.30945    0.27007   1.00
H1       0.89968    0.21819    0.30236   1.00
H1       1.09895    0.30920    0.27119   1.00
H1       0.90179    0.28256    0.19497   1.00
H1       1.10043    0.19103    0.23108   1.00
C5       1.02239    0.17957    0.22462   1.00
H1       0.97401    0.28207    0.19608   1.00
H2       1.04354    0.15526    0.22098   1.00
H2       1.00103    0.16987    0.24700   1.00
N1       1.00292    0.18645    0.18724   1.00
C6       1.02012    0.19808    0.15388   1.00
C6       0.96460    0.18195    0.17984   1.00
C6       0.99243    0.20140    0.12488   1.00
C6       0.95711    0.19116    0.14140   1.00
H3       1.05099    0.20407    0.15076   1.00
H3       0.94309    0.17297    0.20118   1.00
H3       0.99741    0.21027    0.09502   1.00
H3       0.92903    0.19051    0.12705   1.00
C4       0.74991    0.02085    0.25003   1.00
C4       0.75009    -0.02085   0.24997   1.00
C3       0.72011    0.04292    0.23207   1.00
C3       0.73863    -0.04225   0.28326   1.00
C3       0.78020    0.04184    0.26850   1.00
C3a      0.76131    -0.04263   0.21624   1.00
C2       0.75143    0.10517    0.25048   1.00
C2       0.74854    -0.10517   0.24983   1.00
C3       0.72093    0.08434    0.23231   1.00
C3       0.73788    -0.08359   0.28312   1.00
C3       0.78102    0.08320    0.26856   1.00
C3       0.76024    -0.08415   0.21667   1.00
H1       0.69616    0.02808    0.21778   1.00
H1       0.72993    -0.02685   0.30945   1.00
H1       0.69764    0.10032    0.21819   1.00
H1       0.72881    -0.09895   0.30920   1.00
H1       0.80503    0.09821    0.28256   1.00
H1       0.76892    -0.10043   0.19103   1.00
C5       0.77538    -0.02239   0.17957   1.00
H1       0.80392    0.02599    0.28207   1.00
H2       0.77902    -0.04354   0.15526   1.00
H2       0.75300    -0.00103   0.16987   1.00
N1       0.81276    -0.00292   0.18645   1.00
C6       0.84612    -0.02012   0.19808   1.00
C6       0.82016    0.03540    0.18195   1.00
C6       0.87512    0.00757    0.20140   1.00
C6       0.85860    0.04289    0.19116   1.00
H3       0.84924    -0.05099   0.20407   1.00
H3       0.79882    0.05691    0.17297   1.00
H3       0.90498    0.00259    0.21027   1.00
H3       0.87295    0.07097    0.19051   1.00
C4       0.75003    0.24991    0.02085   1.00
C4       0.74997    0.25009    -0.02085   1.00
C3       0.73207    0.22011    0.04292   1.00
C3       0.78326    0.23863    -0.04225   1.00
C3       0.76850    0.28020    0.04184   1.00
C3a      0.71624    0.26131    -0.04263   1.00
C2       0.75048    0.25143    0.10517   1.00
C2       0.74983    0.24854    -0.10517   1.00
C3       0.73231    0.22093    0.08434   1.00
C3       0.78312    0.23788    -0.08359   1.00
C3       0.76856    0.28102    0.08320   1.00
C3       0.71667    0.26024    -0.08415   1.00
H1       0.71778    0.19616    0.02808   1.00
H1       0.80945    0.22993    -0.02685   1.00
H1       0.71819    0.19764    0.10032   1.00
H1       0.80920    0.22881    -0.09895   1.00
H1       0.78256    0.30503    0.09821   1.00
H1       0.69103    0.26892    -0.10043   1.00
C5       0.67957    0.27538    -0.02239   1.00
H1       0.78207    0.30392    0.02599   1.00
H2       0.65526    0.27902    -0.04354   1.00
H2       0.66987    0.25300    -0.00103   1.00
N1       0.68645    0.31276    -0.00292   1.00
C6       0.69808    0.34612    -0.02012   1.00
C6       0.68195    0.32016    0.03540   1.00
C6       0.70140    0.37512    0.00757   1.00
C6       0.69116    0.35860    0.04289   1.00
H3       0.70407    0.34924    -0.05099   1.00
H3       0.67297    0.29882    0.05691   1.00
H3       0.71027    0.40498    0.00259   1.00
H3       0.69051    0.37295    0.07097   1.00
