data_IRMOF10_SG202_Ligand12_label_c.

_audit_creation_method             'generated by an auxiliary program of Tobunporous'

_symmetry_space_group_name_H-M     'P 1'
_symmetry_Int_Tables_number        1
_symmetry_cell_setting             triclinic

_cell_length_a                    34.2800
_cell_length_b                    34.2800
_cell_length_c                    34.2800
_cell_angle_alpha                 90.0000
_cell_angle_beta                  90.0000
_cell_angle_gamma                 90.0000

loop_
_atom_site_label
_atom_site_fract_x
_atom_site_fract_y
_atom_site_fract_z
_atom_site_occupancy
O1       0.75000    0.75000    0.75000   1.00
Zn1      0.71720    0.78280    0.78280   1.00
Zn1      0.78280    0.71720    0.78280   1.00
Zn1      0.78280    0.78280    0.71720   1.00
Zn1      0.71720    0.71720    0.71720   1.00
O2       0.72650    0.77350    0.83820   1.00
O2       0.72650    0.83820    0.77350   1.00
O2       0.66180    0.77350    0.77350   1.00
O2       0.77350    0.72650    0.83820   1.00
O2       0.83820    0.72650    0.77350   1.00
O2       0.77350    0.66180    0.77350   1.00
O2       0.77350    0.83820    0.72650   1.00
O2       0.83820    0.77350    0.72650   1.00
O2       0.77350    0.77350    0.66180   1.00
O2       0.66180    0.72650    0.72650   1.00
O2       0.72650    0.66180    0.72650   1.00
O2       0.72650    0.72650    0.66180   1.00
C1       0.75000    0.75000    0.85520   1.00
C1       0.75000    0.85520    0.75000   1.00
C1       0.64480    0.75000    0.75000   1.00
C1       0.85520    0.75000    0.75000   1.00
C1       0.75000    0.64480    0.75000   1.00
C1       0.75000    0.75000    0.64480   1.00
O1       0.25000    0.25000    0.75000   1.00
Zn1      0.21720    0.28280    0.78280   1.00
Zn1      0.28280    0.21720    0.78280   1.00
Zn1      0.28280    0.28280    0.71720   1.00
Zn1      0.21720    0.21720    0.71720   1.00
O2       0.22650    0.27350    0.83820   1.00
O2       0.22650    0.33820    0.77350   1.00
O2       0.16180    0.27350    0.77350   1.00
O2       0.27350    0.22650    0.83820   1.00
O2       0.33820    0.22650    0.77350   1.00
O2       0.27350    0.16180    0.77350   1.00
O2       0.27350    0.33820    0.72650   1.00
O2       0.33820    0.27350    0.72650   1.00
O2       0.27350    0.27350    0.66180   1.00
O2       0.16180    0.22650    0.72650   1.00
O2       0.22650    0.16180    0.72650   1.00
O2       0.22650    0.22650    0.66180   1.00
C1       0.25000    0.25000    0.85520   1.00
C1       0.25000    0.35520    0.75000   1.00
C1       0.14480    0.25000    0.75000   1.00
C1       0.35520    0.25000    0.75000   1.00
C1       0.25000    0.14480    0.75000   1.00
C1       0.25000    0.25000    0.64480   1.00
O1       0.25000    0.75000    0.25000   1.00
Zn1      0.21720    0.78280    0.28280   1.00
Zn1      0.28280    0.71720    0.28280   1.00
Zn1      0.28280    0.78280    0.21720   1.00
Zn1      0.21720    0.71720    0.21720   1.00
O2       0.22650    0.77350    0.33820   1.00
O2       0.22650    0.83820    0.27350   1.00
O2       0.16180    0.77350    0.27350   1.00
O2       0.27350    0.72650    0.33820   1.00
O2       0.33820    0.72650    0.27350   1.00
O2       0.27350    0.66180    0.27350   1.00
O2       0.27350    0.83820    0.22650   1.00
O2       0.33820    0.77350    0.22650   1.00
O2       0.27350    0.77350    0.16180   1.00
O2       0.16180    0.72650    0.22650   1.00
O2       0.22650    0.66180    0.22650   1.00
O2       0.22650    0.72650    0.16180   1.00
C1       0.25000    0.75000    0.35520   1.00
C1       0.25000    0.85520    0.25000   1.00
C1       0.14480    0.75000    0.25000   1.00
C1       0.35520    0.75000    0.25000   1.00
C1       0.25000    0.64480    0.25000   1.00
C1       0.25000    0.75000    0.14480   1.00
O1       0.75000    0.25000    0.25000   1.00
Zn1      0.71720    0.28280    0.28280   1.00
Zn1      0.78280    0.21720    0.28280   1.00
Zn1      0.78280    0.28280    0.21720   1.00
Zn1      0.71720    0.21720    0.21720   1.00
O2       0.72650    0.27350    0.33820   1.00
O2       0.72650    0.33820    0.27350   1.00
O2       0.66180    0.27350    0.27350   1.00
O2       0.77350    0.22650    0.33820   1.00
O2       0.83820    0.22650    0.27350   1.00
O2       0.77350    0.16180    0.27350   1.00
O2       0.77350    0.33820    0.22650   1.00
O2       0.83820    0.27350    0.22650   1.00
O2       0.77350    0.27350    0.16180   1.00
O2       0.66180    0.22650    0.22650   1.00
O2       0.72650    0.16180    0.22650   1.00
O2       0.72650    0.22650    0.16180   1.00
C1       0.75000    0.25000    0.35520   1.00
C1       0.75000    0.35520    0.25000   1.00
C1       0.64480    0.25000    0.25000   1.00
C1       0.85520    0.25000    0.25000   1.00
C1       0.75000    0.14480    0.25000   1.00
C1       0.75000    0.25000    0.14480   1.00
O1       0.25000    0.25000    0.25000   1.00
Zn1      0.28280    0.21720    0.21720   1.00
Zn1      0.21720    0.28280    0.21720   1.00
Zn1      0.21720    0.21720    0.28280   1.00
Zn1      0.28280    0.28280    0.28280   1.00
O2       0.27350    0.22650    0.16180   1.00
O2       0.27350    0.16180    0.22650   1.00
O2       0.33820    0.22650    0.22650   1.00
O2       0.22650    0.27350    0.16180   1.00
O2       0.16180    0.27350    0.22650   1.00
O2       0.22650    0.33820    0.22650   1.00
O2       0.22650    0.16180    0.27350   1.00
O2       0.16180    0.22650    0.27350   1.00
O2       0.22650    0.22650    0.33820   1.00
O2       0.33820    0.27350    0.27350   1.00
O2       0.27350    0.33820    0.27350   1.00
O2       0.27350    0.27350    0.33820   1.00
C1       0.25000    0.25000    0.14480   1.00
C1       0.25000    0.14480    0.25000   1.00
C1       0.35520    0.25000    0.25000   1.00
C1       0.14480    0.25000    0.25000   1.00
C1       0.25000    0.35520    0.25000   1.00
C1       0.25000    0.25000    0.35520   1.00
O1       0.75000    0.75000    0.25000   1.00
Zn1      0.78280    0.71720    0.21720   1.00
Zn1      0.71720    0.78280    0.21720   1.00
Zn1      0.71720    0.71720    0.28280   1.00
Zn1      0.78280    0.78280    0.28280   1.00
O2       0.77350    0.72650    0.16180   1.00
O2       0.77350    0.66180    0.22650   1.00
O2       0.83820    0.72650    0.22650   1.00
O2       0.72650    0.77350    0.16180   1.00
O2       0.66180    0.77350    0.22650   1.00
O2       0.72650    0.83820    0.22650   1.00
O2       0.72650    0.66180    0.27350   1.00
O2       0.66180    0.72650    0.27350   1.00
O2       0.72650    0.72650    0.33820   1.00
O2       0.83820    0.77350    0.27350   1.00
O2       0.77350    0.83820    0.27350   1.00
O2       0.77350    0.77350    0.33820   1.00
C1       0.75000    0.75000    0.14480   1.00
C1       0.75000    0.64480    0.25000   1.00
C1       0.85520    0.75000    0.25000   1.00
C1       0.64480    0.75000    0.25000   1.00
C1       0.75000    0.85520    0.25000   1.00
C1       0.75000    0.75000    0.35520   1.00
O1       0.75000    0.25000    0.75000   1.00
Zn1      0.78280    0.21720    0.71720   1.00
Zn1      0.71720    0.28280    0.71720   1.00
Zn1      0.71720    0.21720    0.78280   1.00
Zn1      0.78280    0.28280    0.78280   1.00
O2       0.77350    0.22650    0.66180   1.00
O2       0.77350    0.16180    0.72650   1.00
O2       0.83820    0.22650    0.72650   1.00
O2       0.72650    0.27350    0.66180   1.00
O2       0.66180    0.27350    0.72650   1.00
O2       0.72650    0.33820    0.72650   1.00
O2       0.72650    0.16180    0.77350   1.00
O2       0.66180    0.22650    0.77350   1.00
O2       0.72650    0.22650    0.83820   1.00
O2       0.83820    0.27350    0.77350   1.00
O2       0.77350    0.33820    0.77350   1.00
O2       0.77350    0.27350    0.83820   1.00
C1       0.75000    0.25000    0.64480   1.00
C1       0.75000    0.14480    0.75000   1.00
C1       0.85520    0.25000    0.75000   1.00
C1       0.64480    0.25000    0.75000   1.00
C1       0.75000    0.35520    0.75000   1.00
C1       0.75000    0.25000    0.85520   1.00
O1       0.25000    0.75000    0.75000   1.00
Zn1      0.28280    0.71720    0.71720   1.00
Zn1      0.21720    0.78280    0.71720   1.00
Zn1      0.21720    0.71720    0.78280   1.00
Zn1      0.28280    0.78280    0.78280   1.00
O2       0.27350    0.72650    0.66180   1.00
O2       0.27350    0.66180    0.72650   1.00
O2       0.33820    0.72650    0.72650   1.00
O2       0.22650    0.77350    0.66180   1.00
O2       0.16180    0.77350    0.72650   1.00
O2       0.22650    0.83820    0.72650   1.00
O2       0.22650    0.66180    0.77350   1.00
O2       0.16180    0.72650    0.77350   1.00
O2       0.22650    0.72650    0.83820   1.00
O2       0.33820    0.77350    0.77350   1.00
O2       0.27350    0.83820    0.77350   1.00
O2       0.27350    0.77350    0.83820   1.00
C1       0.25000    0.75000    0.64480   1.00
C1       0.25000    0.64480    0.75000   1.00
C1       0.35520    0.75000    0.75000   1.00
C1       0.14480    0.75000    0.75000   1.00
C1       0.25000    0.85520    0.75000   1.00
C1       0.25000    0.75000    0.85520   1.00
C4       0.74980    0.75075    1.02067   1.00
C4       0.75020    0.74925    0.97933   1.00
C3       0.78281    0.76340    1.04244   1.00
C3       0.78511    0.75481    0.95756   1.00
C4       0.71586    0.73913    1.04150   1.00
C4       0.71500    0.74233    0.95850   1.00
C2       0.75061    0.75015    1.10352   1.00
C2       0.75060    0.75018    0.89648   1.00
C3       0.78314    0.76268    1.08310   1.00
C3       0.78504    0.75559    0.91690   1.00
C3       0.71713    0.73901    1.08306   1.00
C3       0.71604    0.74308    0.91694   1.00
H1       0.80867    0.77497    1.02888   1.00
H1       0.81329    0.75772    0.97112   1.00
C5       0.68143    0.72853    1.02065   1.00
C5       0.67989    0.73430    0.97935   1.00
H1       0.80883    0.77219    1.09886   1.00
H1       0.81204    0.76021    0.90114   1.00
H1       0.69226    0.73093    1.10053   1.00
H1       0.69046    0.73763    0.89947   1.00
C6       0.64724    0.70976    1.04234   1.00
C6       0.64089    0.73345    0.95766   1.00
H2       0.63251    0.68786    1.02358   1.00
H2       0.65709    0.69196    1.06737   1.00
C6       0.61850    0.74079    1.05724   1.00
H2       0.61718    0.74504    0.97642   1.00
H2       0.64052    0.75379    0.93263   1.00
C6       0.63152    0.69220    0.94276   1.00
H2       0.60716    0.75881    1.03274   1.00
C6       0.58429    0.72158    1.07832   1.00
H2       0.63369    0.76106    1.07760   1.00
C6       0.59230    0.69172    0.92168   1.00
H2       0.65482    0.68224    0.92240   1.00
H2       0.63072    0.67093    0.96726   1.00
H2       0.56822    0.70186    1.05822   1.00
H2       0.59477    0.70448    1.10380   1.00
H2       0.56378    0.74431    1.08898   1.00
H2       0.56851    0.70076    0.94178   1.00
H2       0.59282    0.71177    0.89620   1.00
H2       0.58590    0.66179    0.91102   1.00
C4       0.75075    1.02067    0.74980   1.00
C4       0.74925    0.97933    0.75020   1.00
C3       0.76340    1.04244    0.78281   1.00
C3       0.75481    0.95756    0.78511   1.00
C4       0.73913    1.04150    0.71586   1.00
C4       0.74233    0.95850    0.71500   1.00
C2       0.75015    1.10352    0.75061   1.00
C2       0.75018    0.89648    0.75060   1.00
C3       0.76268    1.08310    0.78314   1.00
C3       0.75559    0.91690    0.78504   1.00
C3       0.73901    1.08306    0.71713   1.00
C3       0.74308    0.91694    0.71604   1.00
H1       0.77497    1.02888    0.80867   1.00
H1       0.75772    0.97112    0.81329   1.00
C5       0.72853    1.02065    0.68143   1.00
C5       0.73430    0.97935    0.67989   1.00
H1       0.77219    1.09886    0.80883   1.00
H1       0.76021    0.90114    0.81204   1.00
H1       0.73093    1.10053    0.69226   1.00
H1       0.73763    0.89947    0.69046   1.00
C6       0.70976    1.04234    0.64724   1.00
C6       0.73345    0.95766    0.64089   1.00
H2       0.68786    1.02358    0.63251   1.00
H2       0.69196    1.06737    0.65709   1.00
C6       0.74079    1.05724    0.61850   1.00
H2       0.74504    0.97642    0.61718   1.00
H2       0.75379    0.93263    0.64052   1.00
C6       0.69220    0.94276    0.63152   1.00
H2       0.75881    1.03274    0.60716   1.00
C6       0.72158    1.07832    0.58429   1.00
H2       0.76106    1.07760    0.63369   1.00
C6       0.69172    0.92168    0.59230   1.00
H2       0.68224    0.92240    0.65482   1.00
H2       0.67093    0.96726    0.63072   1.00
H2       0.70186    1.05822    0.56822   1.00
H2       0.70448    1.10380    0.59477   1.00
H2       0.74431    1.08898    0.56378   1.00
H2       0.70076    0.94178    0.56851   1.00
H2       0.71177    0.89620    0.59282   1.00
H2       0.66179    0.91102    0.58590   1.00
C4       0.47933    0.74980    0.74925   1.00
C4       0.52067    0.75020    0.75075   1.00
C3       0.45756    0.78281    0.73660   1.00
C3       0.54244    0.78511    0.74519   1.00
C4       0.45850    0.71586    0.76087   1.00
C4       0.54150    0.71500    0.75767   1.00
C2       0.39648    0.75061    0.74985   1.00
C2       0.60352    0.75060    0.74982   1.00
C3       0.41690    0.78314    0.73732   1.00
C3       0.58310    0.78504    0.74441   1.00
C3       0.41694    0.71713    0.76099   1.00
C3       0.58306    0.71604    0.75692   1.00
H1       0.47112    0.80867    0.72503   1.00
H1       0.52888    0.81329    0.74228   1.00
C5       0.47935    0.68143    0.77147   1.00
C5       0.52065    0.67989    0.76570   1.00
H1       0.40114    0.80883    0.72781   1.00
H1       0.59886    0.81204    0.73979   1.00
H1       0.39947    0.69226    0.76907   1.00
H1       0.60053    0.69046    0.76237   1.00
C6       0.45766    0.64724    0.79024   1.00
C6       0.54234    0.64089    0.76655   1.00
H2       0.47642    0.63251    0.81214   1.00
H2       0.43263    0.65709    0.80804   1.00
C6       0.44276    0.61850    0.75921   1.00
H2       0.52358    0.61718    0.75496   1.00
H2       0.56737    0.64052    0.74621   1.00
C6       0.55724    0.63152    0.80780   1.00
H2       0.46726    0.60716    0.74119   1.00
C6       0.42168    0.58429    0.77842   1.00
H2       0.42240    0.63369    0.73894   1.00
C6       0.57832    0.59230    0.80828   1.00
H2       0.57760    0.65482    0.81776   1.00
H2       0.53274    0.63072    0.82907   1.00
H2       0.44178    0.56822    0.79814   1.00
H2       0.39620    0.59477    0.79552   1.00
H2       0.41102    0.56378    0.75569   1.00
H2       0.55822    0.56851    0.79924   1.00
H2       0.60380    0.59282    0.78823   1.00
H2       0.58898    0.58590    0.83821   1.00
C4       1.02067    0.74980    0.75075   1.00
C4       0.97933    0.75020    0.74925   1.00
C3       1.04244    0.78281    0.76340   1.00
C3       0.95756    0.78511    0.75481   1.00
C4       1.04150    0.71586    0.73913   1.00
C4       0.95850    0.71500    0.74233   1.00
C2       1.10352    0.75061    0.75015   1.00
C2       0.89648    0.75060    0.75018   1.00
C3       1.08310    0.78314    0.76268   1.00
C3       0.91690    0.78504    0.75559   1.00
C3       1.08306    0.71713    0.73901   1.00
C3       0.91694    0.71604    0.74308   1.00
H1       1.02888    0.80867    0.77497   1.00
H1       0.97112    0.81329    0.75772   1.00
C5       1.02065    0.68143    0.72853   1.00
C5       0.97935    0.67989    0.73430   1.00
H1       1.09886    0.80883    0.77219   1.00
H1       0.90114    0.81204    0.76021   1.00
H1       1.10053    0.69226    0.73093   1.00
H1       0.89947    0.69046    0.73763   1.00
C6       1.04234    0.64724    0.70976   1.00
C6       0.95766    0.64089    0.73345   1.00
H2       1.02358    0.63251    0.68786   1.00
H2       1.06737    0.65709    0.69196   1.00
C6       1.05724    0.61850    0.74079   1.00
H2       0.97642    0.61718    0.74504   1.00
H2       0.93263    0.64052    0.75379   1.00
C6       0.94276    0.63152    0.69220   1.00
H2       1.03274    0.60716    0.75881   1.00
C6       1.07832    0.58429    0.72158   1.00
H2       1.07760    0.63369    0.76106   1.00
C6       0.92168    0.59230    0.69172   1.00
H2       0.92240    0.65482    0.68224   1.00
H2       0.96726    0.63072    0.67093   1.00
H2       1.05822    0.56822    0.70186   1.00
H2       1.10380    0.59477    0.70448   1.00
H2       1.08898    0.56378    0.74431   1.00
H2       0.94178    0.56851    0.70076   1.00
H2       0.89620    0.59282    0.71177   1.00
H2       0.91102    0.58590    0.66179   1.00
C4       0.74925    0.47933    0.74980   1.00
C4       0.75075    0.52067    0.75020   1.00
C3       0.73660    0.45756    0.78281   1.00
C3       0.74519    0.54244    0.78511   1.00
C4       0.76087    0.45850    0.71586   1.00
C4       0.75767    0.54150    0.71500   1.00
C2       0.74985    0.39648    0.75061   1.00
C2       0.74982    0.60352    0.75060   1.00
C3       0.73732    0.41690    0.78314   1.00
C3       0.74441    0.58310    0.78504   1.00
C3       0.76099    0.41694    0.71713   1.00
C3       0.75692    0.58306    0.71604   1.00
H1       0.72503    0.47112    0.80867   1.00
H1       0.74228    0.52888    0.81329   1.00
C5       0.77147    0.47935    0.68143   1.00
C5       0.76570    0.52065    0.67989   1.00
H1       0.72781    0.40114    0.80883   1.00
H1       0.73979    0.59886    0.81204   1.00
H1       0.76907    0.39947    0.69226   1.00
H1       0.76237    0.60053    0.69046   1.00
C6       0.79024    0.45766    0.64724   1.00
C6       0.76655    0.54234    0.64089   1.00
H2       0.81214    0.47642    0.63251   1.00
H2       0.80804    0.43263    0.65709   1.00
C6       0.75921    0.44276    0.61850   1.00
H2       0.75496    0.52358    0.61718   1.00
H2       0.74621    0.56737    0.64052   1.00
C6       0.80780    0.55724    0.63152   1.00
H2       0.74119    0.46726    0.60716   1.00
C6       0.77842    0.42168    0.58429   1.00
H2       0.73894    0.42240    0.63369   1.00
C6       0.80828    0.57832    0.59230   1.00
H2       0.81776    0.57760    0.65482   1.00
H2       0.82907    0.53274    0.63072   1.00
H2       0.79814    0.44178    0.56822   1.00
H2       0.79552    0.39620    0.59477   1.00
H2       0.75569    0.41102    0.56378   1.00
H2       0.79924    0.55822    0.56851   1.00
H2       0.78823    0.60380    0.59282   1.00
H2       0.83821    0.58898    0.58590   1.00
C4       0.74980    0.74925    0.47933   1.00
C4       0.75020    0.75075    0.52067   1.00
C3       0.78281    0.73660    0.45756   1.00
C3       0.78511    0.74519    0.54244   1.00
C4       0.71586    0.76087    0.45850   1.00
C4       0.71500    0.75767    0.54150   1.00
C2       0.75061    0.74985    0.39648   1.00
C2       0.75060    0.74982    0.60352   1.00
C3       0.78314    0.73732    0.41690   1.00
C3       0.78504    0.74441    0.58310   1.00
C3       0.71713    0.76099    0.41694   1.00
C3       0.71604    0.75692    0.58306   1.00
H1       0.80867    0.72503    0.47112   1.00
H1       0.81329    0.74228    0.52888   1.00
C5       0.68143    0.77147    0.47935   1.00
C5       0.67989    0.76570    0.52065   1.00
H1       0.80883    0.72781    0.40114   1.00
H1       0.81204    0.73979    0.59886   1.00
H1       0.69226    0.76907    0.39947   1.00
H1       0.69046    0.76237    0.60053   1.00
C6       0.64724    0.79024    0.45766   1.00
C6       0.64089    0.76655    0.54234   1.00
H2       0.63251    0.81214    0.47642   1.00
H2       0.65709    0.80804    0.43263   1.00
C6       0.61850    0.75921    0.44276   1.00
H2       0.61718    0.75496    0.52358   1.00
H2       0.64052    0.74621    0.56737   1.00
C6       0.63152    0.80780    0.55724   1.00
H2       0.60716    0.74119    0.46726   1.00
C6       0.58429    0.77842    0.42168   1.00
H2       0.63369    0.73894    0.42240   1.00
C6       0.59230    0.80828    0.57832   1.00
H2       0.65482    0.81776    0.57760   1.00
H2       0.63072    0.82907    0.53274   1.00
H2       0.56822    0.79814    0.44178   1.00
H2       0.59477    0.79552    0.39620   1.00
H2       0.56378    0.75569    0.41102   1.00
H2       0.56851    0.79924    0.55822   1.00
H2       0.59282    0.78823    0.60380   1.00
H2       0.58590    0.83821    0.58898   1.00
C4       0.24980    0.25075    1.02067   1.00
C4       0.25020    0.24925    0.97933   1.00
C3       0.28281    0.26340    1.04244   1.00
C3       0.28511    0.25481    0.95756   1.00
C4       0.21586    0.23913    1.04150   1.00
C4       0.21500    0.24233    0.95850   1.00
C2       0.25061    0.25015    1.10352   1.00
C2       0.25060    0.25018    0.89648   1.00
C3       0.28314    0.26268    1.08310   1.00
C3       0.28504    0.25559    0.91690   1.00
C3       0.21713    0.23901    1.08306   1.00
C3       0.21604    0.24308    0.91694   1.00
H1       0.30867    0.27497    1.02888   1.00
H1       0.31329    0.25772    0.97112   1.00
C5       0.18143    0.22853    1.02065   1.00
C5       0.17989    0.23430    0.97935   1.00
H1       0.30883    0.27219    1.09886   1.00
H1       0.31204    0.26021    0.90114   1.00
H1       0.19226    0.23093    1.10053   1.00
H1       0.19046    0.23763    0.89947   1.00
C6       0.14724    0.20976    1.04234   1.00
C6       0.14089    0.23345    0.95766   1.00
H2       0.13251    0.18786    1.02358   1.00
H2       0.15709    0.19196    1.06737   1.00
C6       0.11850    0.24079    1.05724   1.00
H2       0.11718    0.24504    0.97642   1.00
H2       0.14052    0.25379    0.93263   1.00
C6       0.13152    0.19220    0.94276   1.00
H2       0.10716    0.25881    1.03274   1.00
C6       0.08429    0.22158    1.07832   1.00
H2       0.13369    0.26106    1.07760   1.00
C6       0.09230    0.19172    0.92168   1.00
H2       0.15482    0.18224    0.92240   1.00
H2       0.13072    0.17093    0.96726   1.00
H2       0.06822    0.20186    1.05822   1.00
H2       0.09477    0.20448    1.10380   1.00
H2       0.06378    0.24431    1.08898   1.00
H2       0.06851    0.20076    0.94178   1.00
H2       0.09282    0.21177    0.89620   1.00
H2       0.08590    0.16179    0.91102   1.00
C4       0.25075    0.52067    0.74980   1.00
C4       0.24925    0.47933    0.75020   1.00
C3       0.26340    0.54244    0.78281   1.00
C3       0.25481    0.45756    0.78511   1.00
C4       0.23913    0.54150    0.71586   1.00
C4       0.24233    0.45850    0.71500   1.00
C2       0.25015    0.60352    0.75061   1.00
C2       0.25018    0.39648    0.75060   1.00
C3       0.26268    0.58310    0.78314   1.00
C3       0.25559    0.41690    0.78504   1.00
C3       0.23901    0.58306    0.71713   1.00
C3       0.24308    0.41694    0.71604   1.00
H1       0.27497    0.52888    0.80867   1.00
H1       0.25772    0.47112    0.81329   1.00
C5       0.22853    0.52065    0.68143   1.00
C5       0.23430    0.47935    0.67989   1.00
H1       0.27219    0.59886    0.80883   1.00
H1       0.26021    0.40114    0.81204   1.00
H1       0.23093    0.60053    0.69226   1.00
H1       0.23763    0.39947    0.69046   1.00
C6       0.20976    0.54234    0.64724   1.00
C6       0.23345    0.45766    0.64089   1.00
H2       0.18786    0.52358    0.63251   1.00
H2       0.19196    0.56737    0.65709   1.00
C6       0.24079    0.55724    0.61850   1.00
H2       0.24504    0.47642    0.61718   1.00
H2       0.25379    0.43263    0.64052   1.00
C6       0.19220    0.44276    0.63152   1.00
H2       0.25881    0.53274    0.60716   1.00
C6       0.22158    0.57832    0.58429   1.00
H2       0.26106    0.57760    0.63369   1.00
C6       0.19172    0.42168    0.59230   1.00
H2       0.18224    0.42240    0.65482   1.00
H2       0.17093    0.46726    0.63072   1.00
H2       0.20186    0.55822    0.56822   1.00
H2       0.20448    0.60380    0.59477   1.00
H2       0.24431    0.58898    0.56378   1.00
H2       0.20076    0.44178    0.56851   1.00
H2       0.21177    0.39620    0.59282   1.00
H2       0.16179    0.41102    0.58590   1.00
C4       -0.02067   0.24980    0.74925   1.00
C4       0.02067    0.25020    0.75075   1.00
C3       -0.04244   0.28281    0.73660   1.00
C3       0.04244    0.28511    0.74519   1.00
C4       -0.04150   0.21586    0.76087   1.00
C4       0.04150    0.21500    0.75767   1.00
C2       -0.10352   0.25061    0.74985   1.00
C2       0.10352    0.25060    0.74982   1.00
C3       -0.08310   0.28314    0.73732   1.00
C3       0.08310    0.28504    0.74441   1.00
C3       -0.08306   0.21713    0.76099   1.00
C3       0.08306    0.21604    0.75692   1.00
H1       -0.02888   0.30867    0.72503   1.00
H1       0.02888    0.31329    0.74228   1.00
C5       -0.02065   0.18143    0.77147   1.00
C5       0.02065    0.17989    0.76570   1.00
H1       -0.09886   0.30883    0.72781   1.00
H1       0.09886    0.31204    0.73979   1.00
H1       -0.10053   0.19226    0.76907   1.00
H1       0.10053    0.19046    0.76237   1.00
C6       -0.04234   0.14724    0.79024   1.00
C6       0.04234    0.14089    0.76655   1.00
H2       -0.02358   0.13251    0.81214   1.00
H2       -0.06737   0.15709    0.80804   1.00
C6       -0.05724   0.11850    0.75921   1.00
H2       0.02358    0.11718    0.75496   1.00
H2       0.06737    0.14052    0.74621   1.00
C6       0.05724    0.13152    0.80780   1.00
H2       -0.03274   0.10716    0.74119   1.00
C6       -0.07832   0.08429    0.77842   1.00
H2       -0.07760   0.13369    0.73894   1.00
C6       0.07832    0.09230    0.80828   1.00
H2       0.07760    0.15482    0.81776   1.00
H2       0.03274    0.13072    0.82907   1.00
H2       -0.05822   0.06822    0.79814   1.00
H2       -0.10380   0.09477    0.79552   1.00
H2       -0.08898   0.06378    0.75569   1.00
H2       0.05822    0.06851    0.79924   1.00
H2       0.10380    0.09282    0.78823   1.00
H2       0.08898    0.08590    0.83821   1.00
C4       0.52067    0.24980    0.75075   1.00
C4       0.47933    0.25020    0.74925   1.00
C3       0.54244    0.28281    0.76340   1.00
C3       0.45756    0.28511    0.75481   1.00
C4       0.54150    0.21586    0.73913   1.00
C4       0.45850    0.21500    0.74233   1.00
C2       0.60352    0.25061    0.75015   1.00
C2       0.39648    0.25060    0.75018   1.00
C3       0.58310    0.28314    0.76268   1.00
C3       0.41690    0.28504    0.75559   1.00
C3       0.58306    0.21713    0.73901   1.00
C3       0.41694    0.21604    0.74308   1.00
H1       0.52888    0.30867    0.77497   1.00
H1       0.47112    0.31329    0.75772   1.00
C5       0.52065    0.18143    0.72853   1.00
C5       0.47935    0.17989    0.73430   1.00
H1       0.59886    0.30883    0.77219   1.00
H1       0.40114    0.31204    0.76021   1.00
H1       0.60053    0.19226    0.73093   1.00
H1       0.39947    0.19046    0.73763   1.00
C6       0.54234    0.14724    0.70976   1.00
C6       0.45766    0.14089    0.73345   1.00
H2       0.52358    0.13251    0.68786   1.00
H2       0.56737    0.15709    0.69196   1.00
C6       0.55724    0.11850    0.74079   1.00
H2       0.47642    0.11718    0.74504   1.00
H2       0.43263    0.14052    0.75379   1.00
C6       0.44276    0.13152    0.69220   1.00
H2       0.53274    0.10716    0.75881   1.00
C6       0.57832    0.08429    0.72158   1.00
H2       0.57760    0.13369    0.76106   1.00
C6       0.42168    0.09230    0.69172   1.00
H2       0.42240    0.15482    0.68224   1.00
H2       0.46726    0.13072    0.67093   1.00
H2       0.55822    0.06822    0.70186   1.00
H2       0.60380    0.09477    0.70448   1.00
H2       0.58898    0.06378    0.74431   1.00
H2       0.44178    0.06851    0.70076   1.00
H2       0.39620    0.09282    0.71177   1.00
H2       0.41102    0.08590    0.66179   1.00
C4       0.24925    -0.02067   0.74980   1.00
C4       0.25075    0.02067    0.75020   1.00
C3       0.23660    -0.04244   0.78281   1.00
C3       0.24519    0.04244    0.78511   1.00
C4       0.26087    -0.04150   0.71586   1.00
C4       0.25767    0.04150    0.71500   1.00
C2       0.24985    -0.10352   0.75061   1.00
C2       0.24982    0.10352    0.75060   1.00
C3       0.23732    -0.08310   0.78314   1.00
C3       0.24441    0.08310    0.78504   1.00
C3       0.26099    -0.08306   0.71713   1.00
C3       0.25692    0.08306    0.71604   1.00
H1       0.22503    -0.02888   0.80867   1.00
H1       0.24228    0.02888    0.81329   1.00
C5       0.27147    -0.02065   0.68143   1.00
C5       0.26570    0.02065    0.67989   1.00
H1       0.22781    -0.09886   0.80883   1.00
H1       0.23979    0.09886    0.81204   1.00
H1       0.26907    -0.10053   0.69226   1.00
H1       0.26237    0.10053    0.69046   1.00
C6       0.29024    -0.04234   0.64724   1.00
C6       0.26655    0.04234    0.64089   1.00
H2       0.31214    -0.02358   0.63251   1.00
H2       0.30804    -0.06737   0.65709   1.00
C6       0.25921    -0.05724   0.61850   1.00
H2       0.25496    0.02358    0.61718   1.00
H2       0.24621    0.06737    0.64052   1.00
C6       0.30780    0.05724    0.63152   1.00
H2       0.24119    -0.03274   0.60716   1.00
C6       0.27842    -0.07832   0.58429   1.00
H2       0.23894    -0.07760   0.63369   1.00
C6       0.30828    0.07832    0.59230   1.00
H2       0.31776    0.07760    0.65482   1.00
H2       0.32907    0.03274    0.63072   1.00
H2       0.29814    -0.05822   0.56822   1.00
H2       0.29552    -0.10380   0.59477   1.00
H2       0.25569    -0.08898   0.56378   1.00
H2       0.29924    0.05822    0.56851   1.00
H2       0.28823    0.10380    0.59282   1.00
H2       0.33821    0.08898    0.58590   1.00
C4       0.24980    0.24925    0.47933   1.00
C4       0.25020    0.25075    0.52067   1.00
C3       0.28281    0.23660    0.45756   1.00
C3       0.28511    0.24519    0.54244   1.00
C4       0.21586    0.26087    0.45850   1.00
C4       0.21500    0.25767    0.54150   1.00
C2       0.25061    0.24985    0.39648   1.00
C2       0.25060    0.24982    0.60352   1.00
C3       0.28314    0.23732    0.41690   1.00
C3       0.28504    0.24441    0.58310   1.00
C3       0.21713    0.26099    0.41694   1.00
C3       0.21604    0.25692    0.58306   1.00
H1       0.30867    0.22503    0.47112   1.00
H1       0.31329    0.24228    0.52888   1.00
C5       0.18143    0.27147    0.47935   1.00
C5       0.17989    0.26570    0.52065   1.00
H1       0.30883    0.22781    0.40114   1.00
H1       0.31204    0.23979    0.59886   1.00
H1       0.19226    0.26907    0.39947   1.00
H1       0.19046    0.26237    0.60053   1.00
C6       0.14724    0.29024    0.45766   1.00
C6       0.14089    0.26655    0.54234   1.00
H2       0.13251    0.31214    0.47642   1.00
H2       0.15709    0.30804    0.43263   1.00
C6       0.11850    0.25921    0.44276   1.00
H2       0.11718    0.25496    0.52358   1.00
H2       0.14052    0.24621    0.56737   1.00
C6       0.13152    0.30780    0.55724   1.00
H2       0.10716    0.24119    0.46726   1.00
C6       0.08429    0.27842    0.42168   1.00
H2       0.13369    0.23894    0.42240   1.00
C6       0.09230    0.30828    0.57832   1.00
H2       0.15482    0.31776    0.57760   1.00
H2       0.13072    0.32907    0.53274   1.00
H2       0.06822    0.29814    0.44178   1.00
H2       0.09477    0.29552    0.39620   1.00
H2       0.06378    0.25569    0.41102   1.00
H2       0.06851    0.29924    0.55822   1.00
H2       0.09282    0.28823    0.60380   1.00
H2       0.08590    0.33821    0.58898   1.00
C4       0.24980    0.75075    0.52067   1.00
C4       0.25020    0.74925    0.47933   1.00
C3       0.28281    0.76340    0.54244   1.00
C3       0.28511    0.75481    0.45756   1.00
C4       0.21586    0.73913    0.54150   1.00
C4       0.21500    0.74233    0.45850   1.00
C2       0.25061    0.75015    0.60352   1.00
C2       0.25060    0.75018    0.39648   1.00
C3       0.28314    0.76268    0.58310   1.00
C3       0.28504    0.75559    0.41690   1.00
C3       0.21713    0.73901    0.58306   1.00
C3       0.21604    0.74308    0.41694   1.00
H1       0.30867    0.77497    0.52888   1.00
H1       0.31329    0.75772    0.47112   1.00
C5       0.18143    0.72853    0.52065   1.00
C5       0.17989    0.73430    0.47935   1.00
H1       0.30883    0.77219    0.59886   1.00
H1       0.31204    0.76021    0.40114   1.00
H1       0.19226    0.73093    0.60053   1.00
H1       0.19046    0.73763    0.39947   1.00
C6       0.14724    0.70976    0.54234   1.00
C6       0.14089    0.73345    0.45766   1.00
H2       0.13251    0.68786    0.52358   1.00
H2       0.15709    0.69196    0.56737   1.00
C6       0.11850    0.74079    0.55724   1.00
H2       0.11718    0.74504    0.47642   1.00
H2       0.14052    0.75379    0.43263   1.00
C6       0.13152    0.69220    0.44276   1.00
H2       0.10716    0.75881    0.53274   1.00
C6       0.08429    0.72158    0.57832   1.00
H2       0.13369    0.76106    0.57760   1.00
C6       0.09230    0.69172    0.42168   1.00
H2       0.15482    0.68224    0.42240   1.00
H2       0.13072    0.67093    0.46726   1.00
H2       0.06822    0.70186    0.55822   1.00
H2       0.09477    0.70448    0.60380   1.00
H2       0.06378    0.74431    0.58898   1.00
H2       0.06851    0.70076    0.44178   1.00
H2       0.09282    0.71177    0.39620   1.00
H2       0.08590    0.66179    0.41102   1.00
C4       0.25075    1.02067    0.24980   1.00
C4       0.24925    0.97933    0.25020   1.00
C3       0.26340    1.04244    0.28281   1.00
C3       0.25481    0.95756    0.28511   1.00
C4       0.23913    1.04150    0.21586   1.00
C4       0.24233    0.95850    0.21500   1.00
C2       0.25015    1.10352    0.25061   1.00
C2       0.25018    0.89648    0.25060   1.00
C3       0.26268    1.08310    0.28314   1.00
C3       0.25559    0.91690    0.28504   1.00
C3       0.23901    1.08306    0.21713   1.00
C3       0.24308    0.91694    0.21604   1.00
H1       0.27497    1.02888    0.30867   1.00
H1       0.25772    0.97112    0.31329   1.00
C5       0.22853    1.02065    0.18143   1.00
C5       0.23430    0.97935    0.17989   1.00
H1       0.27219    1.09886    0.30883   1.00
H1       0.26021    0.90114    0.31204   1.00
H1       0.23093    1.10053    0.19226   1.00
H1       0.23763    0.89947    0.19046   1.00
C6       0.20976    1.04234    0.14724   1.00
C6       0.23345    0.95766    0.14089   1.00
H2       0.18786    1.02358    0.13251   1.00
H2       0.19196    1.06737    0.15709   1.00
C6       0.24079    1.05724    0.11850   1.00
H2       0.24504    0.97642    0.11718   1.00
H2       0.25379    0.93263    0.14052   1.00
C6       0.19220    0.94276    0.13152   1.00
H2       0.25881    1.03274    0.10716   1.00
C6       0.22158    1.07832    0.08429   1.00
H2       0.26106    1.07760    0.13369   1.00
C6       0.19172    0.92168    0.09230   1.00
H2       0.18224    0.92240    0.15482   1.00
H2       0.17093    0.96726    0.13072   1.00
H2       0.20186    1.05822    0.06822   1.00
H2       0.20448    1.10380    0.09477   1.00
H2       0.24431    1.08898    0.06378   1.00
H2       0.20076    0.94178    0.06851   1.00
H2       0.21177    0.89620    0.09282   1.00
H2       0.16179    0.91102    0.08590   1.00
C4       -0.02067   0.74980    0.24925   1.00
C4       0.02067    0.75020    0.25075   1.00
C3       -0.04244   0.78281    0.23660   1.00
C3       0.04244    0.78511    0.24519   1.00
C4       -0.04150   0.71586    0.26087   1.00
C4       0.04150    0.71500    0.25767   1.00
C2       -0.10352   0.75061    0.24985   1.00
C2       0.10352    0.75060    0.24982   1.00
C3       -0.08310   0.78314    0.23732   1.00
C3       0.08310    0.78504    0.24441   1.00
C3       -0.08306   0.71713    0.26099   1.00
C3       0.08306    0.71604    0.25692   1.00
H1       -0.02888   0.80867    0.22503   1.00
H1       0.02888    0.81329    0.24228   1.00
C5       -0.02065   0.68143    0.27147   1.00
C5       0.02065    0.67989    0.26570   1.00
H1       -0.09886   0.80883    0.22781   1.00
H1       0.09886    0.81204    0.23979   1.00
H1       -0.10053   0.69226    0.26907   1.00
H1       0.10053    0.69046    0.26237   1.00
C6       -0.04234   0.64724    0.29024   1.00
C6       0.04234    0.64089    0.26655   1.00
H2       -0.02358   0.63251    0.31214   1.00
H2       -0.06737   0.65709    0.30804   1.00
C6       -0.05724   0.61850    0.25921   1.00
H2       0.02358    0.61718    0.25496   1.00
H2       0.06737    0.64052    0.24621   1.00
C6       0.05724    0.63152    0.30780   1.00
H2       -0.03274   0.60716    0.24119   1.00
C6       -0.07832   0.58429    0.27842   1.00
H2       -0.07760   0.63369    0.23894   1.00
C6       0.07832    0.59230    0.30828   1.00
H2       0.07760    0.65482    0.31776   1.00
H2       0.03274    0.63072    0.32907   1.00
H2       -0.05822   0.56822    0.29814   1.00
H2       -0.10380   0.59477    0.29552   1.00
H2       -0.08898   0.56378    0.25569   1.00
H2       0.05822    0.56851    0.29924   1.00
H2       0.10380    0.59282    0.28823   1.00
H2       0.08898    0.58590    0.33821   1.00
C4       0.52067    0.74980    0.25075   1.00
C4       0.47933    0.75020    0.24925   1.00
C3       0.54244    0.78281    0.26340   1.00
C3       0.45756    0.78511    0.25481   1.00
C4       0.54150    0.71586    0.23913   1.00
C4       0.45850    0.71500    0.24233   1.00
C2       0.60352    0.75061    0.25015   1.00
C2       0.39648    0.75060    0.25018   1.00
C3       0.58310    0.78314    0.26268   1.00
C3       0.41690    0.78504    0.25559   1.00
C3       0.58306    0.71713    0.23901   1.00
C3       0.41694    0.71604    0.24308   1.00
H1       0.52888    0.80867    0.27497   1.00
H1       0.47112    0.81329    0.25772   1.00
C5       0.52065    0.68143    0.22853   1.00
C5       0.47935    0.67989    0.23430   1.00
H1       0.59886    0.80883    0.27219   1.00
H1       0.40114    0.81204    0.26021   1.00
H1       0.60053    0.69226    0.23093   1.00
H1       0.39947    0.69046    0.23763   1.00
C6       0.54234    0.64724    0.20976   1.00
C6       0.45766    0.64089    0.23345   1.00
H2       0.52358    0.63251    0.18786   1.00
H2       0.56737    0.65709    0.19196   1.00
C6       0.55724    0.61850    0.24079   1.00
H2       0.47642    0.61718    0.24504   1.00
H2       0.43263    0.64052    0.25379   1.00
C6       0.44276    0.63152    0.19220   1.00
H2       0.53274    0.60716    0.25881   1.00
C6       0.57832    0.58429    0.22158   1.00
H2       0.57760    0.63369    0.26106   1.00
C6       0.42168    0.59230    0.19172   1.00
H2       0.42240    0.65482    0.18224   1.00
H2       0.46726    0.63072    0.17093   1.00
H2       0.55822    0.56822    0.20186   1.00
H2       0.60380    0.59477    0.20448   1.00
H2       0.58898    0.56378    0.24431   1.00
H2       0.44178    0.56851    0.20076   1.00
H2       0.39620    0.59282    0.21177   1.00
H2       0.41102    0.58590    0.16179   1.00
C4       0.24925    0.47933    0.24980   1.00
C4       0.25075    0.52067    0.25020   1.00
C3       0.23660    0.45756    0.28281   1.00
C3       0.24519    0.54244    0.28511   1.00
C4       0.26087    0.45850    0.21586   1.00
C4       0.25767    0.54150    0.21500   1.00
C2       0.24985    0.39648    0.25061   1.00
C2       0.24982    0.60352    0.25060   1.00
C3       0.23732    0.41690    0.28314   1.00
C3       0.24441    0.58310    0.28504   1.00
C3       0.26099    0.41694    0.21713   1.00
C3       0.25692    0.58306    0.21604   1.00
H1       0.22503    0.47112    0.30867   1.00
H1       0.24228    0.52888    0.31329   1.00
C5       0.27147    0.47935    0.18143   1.00
C5       0.26570    0.52065    0.17989   1.00
H1       0.22781    0.40114    0.30883   1.00
H1       0.23979    0.59886    0.31204   1.00
H1       0.26907    0.39947    0.19226   1.00
H1       0.26237    0.60053    0.19046   1.00
C6       0.29024    0.45766    0.14724   1.00
C6       0.26655    0.54234    0.14089   1.00
H2       0.31214    0.47642    0.13251   1.00
H2       0.30804    0.43263    0.15709   1.00
C6       0.25921    0.44276    0.11850   1.00
H2       0.25496    0.52358    0.11718   1.00
H2       0.24621    0.56737    0.14052   1.00
C6       0.30780    0.55724    0.13152   1.00
H2       0.24119    0.46726    0.10716   1.00
C6       0.27842    0.42168    0.08429   1.00
H2       0.23894    0.42240    0.13369   1.00
C6       0.30828    0.57832    0.09230   1.00
H2       0.31776    0.57760    0.15482   1.00
H2       0.32907    0.53274    0.13072   1.00
H2       0.29814    0.44178    0.06822   1.00
H2       0.29552    0.39620    0.09477   1.00
H2       0.25569    0.41102    0.06378   1.00
H2       0.29924    0.55822    0.06851   1.00
H2       0.28823    0.60380    0.09282   1.00
H2       0.33821    0.58898    0.08590   1.00
C4       0.24980    0.74925    -0.02067   1.00
C4       0.25020    0.75075    0.02067   1.00
C3       0.28281    0.73660    -0.04244   1.00
C3       0.28511    0.74519    0.04244   1.00
C4       0.21586    0.76087    -0.04150   1.00
C4       0.21500    0.75767    0.04150   1.00
C2       0.25061    0.74985    -0.10352   1.00
C2       0.25060    0.74982    0.10352   1.00
C3       0.28314    0.73732    -0.08310   1.00
C3       0.28504    0.74441    0.08310   1.00
C3       0.21713    0.76099    -0.08306   1.00
C3       0.21604    0.75692    0.08306   1.00
H1       0.30867    0.72503    -0.02888   1.00
H1       0.31329    0.74228    0.02888   1.00
C5       0.18143    0.77147    -0.02065   1.00
C5       0.17989    0.76570    0.02065   1.00
H1       0.30883    0.72781    -0.09886   1.00
H1       0.31204    0.73979    0.09886   1.00
H1       0.19226    0.76907    -0.10053   1.00
H1       0.19046    0.76237    0.10053   1.00
C6       0.14724    0.79024    -0.04234   1.00
C6       0.14089    0.76655    0.04234   1.00
H2       0.13251    0.81214    -0.02358   1.00
H2       0.15709    0.80804    -0.06737   1.00
C6       0.11850    0.75921    -0.05724   1.00
H2       0.11718    0.75496    0.02358   1.00
H2       0.14052    0.74621    0.06737   1.00
C6       0.13152    0.80780    0.05724   1.00
H2       0.10716    0.74119    -0.03274   1.00
C6       0.08429    0.77842    -0.07832   1.00
H2       0.13369    0.73894    -0.07760   1.00
C6       0.09230    0.80828    0.07832   1.00
H2       0.15482    0.81776    0.07760   1.00
H2       0.13072    0.82907    0.03274   1.00
H2       0.06822    0.79814    -0.05822   1.00
H2       0.09477    0.79552    -0.10380   1.00
H2       0.06378    0.75569    -0.08898   1.00
H2       0.06851    0.79924    0.05822   1.00
H2       0.09282    0.78823    0.10380   1.00
H2       0.08590    0.83821    0.08898   1.00
C4       0.74980    0.25075    0.52067   1.00
C4       0.75020    0.24925    0.47933   1.00
C3       0.78281    0.26340    0.54244   1.00
C3       0.78511    0.25481    0.45756   1.00
C4       0.71586    0.23913    0.54150   1.00
C4       0.71500    0.24233    0.45850   1.00
C2       0.75061    0.25015    0.60352   1.00
C2       0.75060    0.25018    0.39648   1.00
C3       0.78314    0.26268    0.58310   1.00
C3       0.78504    0.25559    0.41690   1.00
C3       0.71713    0.23901    0.58306   1.00
C3       0.71604    0.24308    0.41694   1.00
H1       0.80867    0.27497    0.52888   1.00
H1       0.81329    0.25772    0.47112   1.00
C5       0.68143    0.22853    0.52065   1.00
C5       0.67989    0.23430    0.47935   1.00
H1       0.80883    0.27219    0.59886   1.00
H1       0.81204    0.26021    0.40114   1.00
H1       0.69226    0.23093    0.60053   1.00
H1       0.69046    0.23763    0.39947   1.00
C6       0.64724    0.20976    0.54234   1.00
C6       0.64089    0.23345    0.45766   1.00
H2       0.63251    0.18786    0.52358   1.00
H2       0.65709    0.19196    0.56737   1.00
C6       0.61850    0.24079    0.55724   1.00
H2       0.61718    0.24504    0.47642   1.00
H2       0.64052    0.25379    0.43263   1.00
C6       0.63152    0.19220    0.44276   1.00
H2       0.60716    0.25881    0.53274   1.00
C6       0.58429    0.22158    0.57832   1.00
H2       0.63369    0.26106    0.57760   1.00
C6       0.59230    0.19172    0.42168   1.00
H2       0.65482    0.18224    0.42240   1.00
H2       0.63072    0.17093    0.46726   1.00
H2       0.56822    0.20186    0.55822   1.00
H2       0.59477    0.20448    0.60380   1.00
H2       0.56378    0.24431    0.58898   1.00
H2       0.56851    0.20076    0.44178   1.00
H2       0.59282    0.21177    0.39620   1.00
H2       0.58590    0.16179    0.41102   1.00
C4       0.75075    0.52067    0.24980   1.00
C4       0.74925    0.47933    0.25020   1.00
C3       0.76340    0.54244    0.28281   1.00
C3       0.75481    0.45756    0.28511   1.00
C4       0.73913    0.54150    0.21586   1.00
C4       0.74233    0.45850    0.21500   1.00
C2       0.75015    0.60352    0.25061   1.00
C2       0.75018    0.39648    0.25060   1.00
C3       0.76268    0.58310    0.28314   1.00
C3       0.75559    0.41690    0.28504   1.00
C3       0.73901    0.58306    0.21713   1.00
C3       0.74308    0.41694    0.21604   1.00
H1       0.77497    0.52888    0.30867   1.00
H1       0.75772    0.47112    0.31329   1.00
C5       0.72853    0.52065    0.18143   1.00
C5       0.73430    0.47935    0.17989   1.00
H1       0.77219    0.59886    0.30883   1.00
H1       0.76021    0.40114    0.31204   1.00
H1       0.73093    0.60053    0.19226   1.00
H1       0.73763    0.39947    0.19046   1.00
C6       0.70976    0.54234    0.14724   1.00
C6       0.73345    0.45766    0.14089   1.00
H2       0.68786    0.52358    0.13251   1.00
H2       0.69196    0.56737    0.15709   1.00
C6       0.74079    0.55724    0.11850   1.00
H2       0.74504    0.47642    0.11718   1.00
H2       0.75379    0.43263    0.14052   1.00
C6       0.69220    0.44276    0.13152   1.00
H2       0.75881    0.53274    0.10716   1.00
C6       0.72158    0.57832    0.08429   1.00
H2       0.76106    0.57760    0.13369   1.00
C6       0.69172    0.42168    0.09230   1.00
H2       0.68224    0.42240    0.15482   1.00
H2       0.67093    0.46726    0.13072   1.00
H2       0.70186    0.55822    0.06822   1.00
H2       0.70448    0.60380    0.09477   1.00
H2       0.74431    0.58898    0.06378   1.00
H2       0.70076    0.44178    0.06851   1.00
H2       0.71177    0.39620    0.09282   1.00
H2       0.66179    0.41102    0.08590   1.00
C4       0.47933    0.24980    0.24925   1.00
C4       0.52067    0.25020    0.25075   1.00
C3       0.45756    0.28281    0.23660   1.00
C3       0.54244    0.28511    0.24519   1.00
C4       0.45850    0.21586    0.26087   1.00
C4       0.54150    0.21500    0.25767   1.00
C2       0.39648    0.25061    0.24985   1.00
C2       0.60352    0.25060    0.24982   1.00
C3       0.41690    0.28314    0.23732   1.00
C3       0.58310    0.28504    0.24441   1.00
C3       0.41694    0.21713    0.26099   1.00
C3       0.58306    0.21604    0.25692   1.00
H1       0.47112    0.30867    0.22503   1.00
H1       0.52888    0.31329    0.24228   1.00
C5       0.47935    0.18143    0.27147   1.00
C5       0.52065    0.17989    0.26570   1.00
H1       0.40114    0.30883    0.22781   1.00
H1       0.59886    0.31204    0.23979   1.00
H1       0.39947    0.19226    0.26907   1.00
H1       0.60053    0.19046    0.26237   1.00
C6       0.45766    0.14724    0.29024   1.00
C6       0.54234    0.14089    0.26655   1.00
H2       0.47642    0.13251    0.31214   1.00
H2       0.43263    0.15709    0.30804   1.00
C6       0.44276    0.11850    0.25921   1.00
H2       0.52358    0.11718    0.25496   1.00
H2       0.56737    0.14052    0.24621   1.00
C6       0.55724    0.13152    0.30780   1.00
H2       0.46726    0.10716    0.24119   1.00
C6       0.42168    0.08429    0.27842   1.00
H2       0.42240    0.13369    0.23894   1.00
C6       0.57832    0.09230    0.30828   1.00
H2       0.57760    0.15482    0.31776   1.00
H2       0.53274    0.13072    0.32907   1.00
H2       0.44178    0.06822    0.29814   1.00
H2       0.39620    0.09477    0.29552   1.00
H2       0.41102    0.06378    0.25569   1.00
H2       0.55822    0.06851    0.29924   1.00
H2       0.60380    0.09282    0.28823   1.00
H2       0.58898    0.08590    0.33821   1.00
C4       1.02067    0.24980    0.25075   1.00
C4       0.97933    0.25020    0.24925   1.00
C3       1.04244    0.28281    0.26340   1.00
C3       0.95756    0.28511    0.25481   1.00
C4       1.04150    0.21586    0.23913   1.00
C4       0.95850    0.21500    0.24233   1.00
C2       1.10352    0.25061    0.25015   1.00
C2       0.89648    0.25060    0.25018   1.00
C3       1.08310    0.28314    0.26268   1.00
C3       0.91690    0.28504    0.25559   1.00
C3       1.08306    0.21713    0.23901   1.00
C3       0.91694    0.21604    0.24308   1.00
H1       1.02888    0.30867    0.27497   1.00
H1       0.97112    0.31329    0.25772   1.00
C5       1.02065    0.18143    0.22853   1.00
C5       0.97935    0.17989    0.23430   1.00
H1       1.09886    0.30883    0.27219   1.00
H1       0.90114    0.31204    0.26021   1.00
H1       1.10053    0.19226    0.23093   1.00
H1       0.89947    0.19046    0.23763   1.00
C6       1.04234    0.14724    0.20976   1.00
C6       0.95766    0.14089    0.23345   1.00
H2       1.02358    0.13251    0.18786   1.00
H2       1.06737    0.15709    0.19196   1.00
C6       1.05724    0.11850    0.24079   1.00
H2       0.97642    0.11718    0.24504   1.00
H2       0.93263    0.14052    0.25379   1.00
C6       0.94276    0.13152    0.19220   1.00
H2       1.03274    0.10716    0.25881   1.00
C6       1.07832    0.08429    0.22158   1.00
H2       1.07760    0.13369    0.26106   1.00
C6       0.92168    0.09230    0.19172   1.00
H2       0.92240    0.15482    0.18224   1.00
H2       0.96726    0.13072    0.17093   1.00
H2       1.05822    0.06822    0.20186   1.00
H2       1.10380    0.09477    0.20448   1.00
H2       1.08898    0.06378    0.24431   1.00
H2       0.94178    0.06851    0.20076   1.00
H2       0.89620    0.09282    0.21177   1.00
H2       0.91102    0.08590    0.16179   1.00
C4       0.74925    -0.02067   0.24980   1.00
C4       0.75075    0.02067    0.25020   1.00
C3       0.73660    -0.04244   0.28281   1.00
C3       0.74519    0.04244    0.28511   1.00
C4       0.76087    -0.04150   0.21586   1.00
C4       0.75767    0.04150    0.21500   1.00
C2       0.74985    -0.10352   0.25061   1.00
C2       0.74982    0.10352    0.25060   1.00
C3       0.73732    -0.08310   0.28314   1.00
C3       0.74441    0.08310    0.28504   1.00
C3       0.76099    -0.08306   0.21713   1.00
C3       0.75692    0.08306    0.21604   1.00
H1       0.72503    -0.02888   0.30867   1.00
H1       0.74228    0.02888    0.31329   1.00
C5       0.77147    -0.02065   0.18143   1.00
C5       0.76570    0.02065    0.17989   1.00
H1       0.72781    -0.09886   0.30883   1.00
H1       0.73979    0.09886    0.31204   1.00
H1       0.76907    -0.10053   0.19226   1.00
H1       0.76237    0.10053    0.19046   1.00
C6       0.79024    -0.04234   0.14724   1.00
C6       0.76655    0.04234    0.14089   1.00
H2       0.81214    -0.02358   0.13251   1.00
H2       0.80804    -0.06737   0.15709   1.00
C6       0.75921    -0.05724   0.11850   1.00
H2       0.75496    0.02358    0.11718   1.00
H2       0.74621    0.06737    0.14052   1.00
C6       0.80780    0.05724    0.13152   1.00
H2       0.74119    -0.03274   0.10716   1.00
C6       0.77842    -0.07832   0.08429   1.00
H2       0.73894    -0.07760   0.13369   1.00
C6       0.80828    0.07832    0.09230   1.00
H2       0.81776    0.07760    0.15482   1.00
H2       0.82907    0.03274    0.13072   1.00
H2       0.79814    -0.05822   0.06822   1.00
H2       0.79552    -0.10380   0.09477   1.00
H2       0.75569    -0.08898   0.06378   1.00
H2       0.79924    0.05822    0.06851   1.00
H2       0.78823    0.10380    0.09282   1.00
H2       0.83821    0.08898    0.08590   1.00
C4       0.74980    0.24925    -0.02067   1.00
C4       0.75020    0.25075    0.02067   1.00
C3       0.78281    0.23660    -0.04244   1.00
C3       0.78511    0.24519    0.04244   1.00
C4       0.71586    0.26087    -0.04150   1.00
C4       0.71500    0.25767    0.04150   1.00
C2       0.75061    0.24985    -0.10352   1.00
C2       0.75060    0.24982    0.10352   1.00
C3       0.78314    0.23732    -0.08310   1.00
C3       0.78504    0.24441    0.08310   1.00
C3       0.71713    0.26099    -0.08306   1.00
C3       0.71604    0.25692    0.08306   1.00
H1       0.80867    0.22503    -0.02888   1.00
H1       0.81329    0.24228    0.02888   1.00
C5       0.68143    0.27147    -0.02065   1.00
C5       0.67989    0.26570    0.02065   1.00
H1       0.80883    0.22781    -0.09886   1.00
H1       0.81204    0.23979    0.09886   1.00
H1       0.69226    0.26907    -0.10053   1.00
H1       0.69046    0.26237    0.10053   1.00
C6       0.64724    0.29024    -0.04234   1.00
C6       0.64089    0.26655    0.04234   1.00
H2       0.63251    0.31214    -0.02358   1.00
H2       0.65709    0.30804    -0.06737   1.00
C6       0.61850    0.25921    -0.05724   1.00
H2       0.61718    0.25496    0.02358   1.00
H2       0.64052    0.24621    0.06737   1.00
C6       0.63152    0.30780    0.05724   1.00
H2       0.60716    0.24119    -0.03274   1.00
C6       0.58429    0.27842    -0.07832   1.00
H2       0.63369    0.23894    -0.07760   1.00
C6       0.59230    0.30828    0.07832   1.00
H2       0.65482    0.31776    0.07760   1.00
H2       0.63072    0.32907    0.03274   1.00
H2       0.56822    0.29814    -0.05822   1.00
H2       0.59477    0.29552    -0.10380   1.00
H2       0.56378    0.25569    -0.08898   1.00
H2       0.56851    0.29924    0.05822   1.00
H2       0.59282    0.28823    0.10380   1.00
H2       0.58590    0.33821    0.08898   1.00
