data_IRMOF10_SG202_Ligand3_label_q.

_audit_creation_method             'generated by an auxiliary program of Tobunporous'

_symmetry_space_group_name_H-M     'P 1'
_symmetry_Int_Tables_number        1
_symmetry_cell_setting             triclinic

_cell_length_a                    34.2800
_cell_length_b                    34.2800
_cell_length_c                    34.2800
_cell_angle_alpha                 90.0000
_cell_angle_beta                  90.0000
_cell_angle_gamma                 90.0000

loop_
_atom_site_label
_atom_site_fract_x
_atom_site_fract_y
_atom_site_fract_z
_atom_site_occupancy
O1       0.75000    0.75000    0.75000   1.00
Zn1      0.71720    0.78280    0.78280   1.00
Zn1      0.78280    0.71720    0.78280   1.00
Zn1      0.78280    0.78280    0.71720   1.00
Zn1      0.71720    0.71720    0.71720   1.00
O2       0.72650    0.77350    0.83820   1.00
O2       0.72650    0.83820    0.77350   1.00
O2       0.66180    0.77350    0.77350   1.00
O2       0.77350    0.72650    0.83820   1.00
O2       0.83820    0.72650    0.77350   1.00
O2       0.77350    0.66180    0.77350   1.00
O2       0.77350    0.83820    0.72650   1.00
O2       0.83820    0.77350    0.72650   1.00
O2       0.77350    0.77350    0.66180   1.00
O2       0.66180    0.72650    0.72650   1.00
O2       0.72650    0.66180    0.72650   1.00
O2       0.72650    0.72650    0.66180   1.00
C1       0.75000    0.75000    0.85520   1.00
C1       0.75000    0.85520    0.75000   1.00
C1       0.64480    0.75000    0.75000   1.00
C1       0.85520    0.75000    0.75000   1.00
C1       0.75000    0.64480    0.75000   1.00
C1       0.75000    0.75000    0.64480   1.00
O1       0.25000    0.25000    0.75000   1.00
Zn1      0.21720    0.28280    0.78280   1.00
Zn1      0.28280    0.21720    0.78280   1.00
Zn1      0.28280    0.28280    0.71720   1.00
Zn1      0.21720    0.21720    0.71720   1.00
O2       0.22650    0.27350    0.83820   1.00
O2       0.22650    0.33820    0.77350   1.00
O2       0.16180    0.27350    0.77350   1.00
O2       0.27350    0.22650    0.83820   1.00
O2       0.33820    0.22650    0.77350   1.00
O2       0.27350    0.16180    0.77350   1.00
O2       0.27350    0.33820    0.72650   1.00
O2       0.33820    0.27350    0.72650   1.00
O2       0.27350    0.27350    0.66180   1.00
O2       0.16180    0.22650    0.72650   1.00
O2       0.22650    0.16180    0.72650   1.00
O2       0.22650    0.22650    0.66180   1.00
C1       0.25000    0.25000    0.85520   1.00
C1       0.25000    0.35520    0.75000   1.00
C1       0.14480    0.25000    0.75000   1.00
C1       0.35520    0.25000    0.75000   1.00
C1       0.25000    0.14480    0.75000   1.00
C1       0.25000    0.25000    0.64480   1.00
O1       0.25000    0.75000    0.25000   1.00
Zn1      0.21720    0.78280    0.28280   1.00
Zn1      0.28280    0.71720    0.28280   1.00
Zn1      0.28280    0.78280    0.21720   1.00
Zn1      0.21720    0.71720    0.21720   1.00
O2       0.22650    0.77350    0.33820   1.00
O2       0.22650    0.83820    0.27350   1.00
O2       0.16180    0.77350    0.27350   1.00
O2       0.27350    0.72650    0.33820   1.00
O2       0.33820    0.72650    0.27350   1.00
O2       0.27350    0.66180    0.27350   1.00
O2       0.27350    0.83820    0.22650   1.00
O2       0.33820    0.77350    0.22650   1.00
O2       0.27350    0.77350    0.16180   1.00
O2       0.16180    0.72650    0.22650   1.00
O2       0.22650    0.66180    0.22650   1.00
O2       0.22650    0.72650    0.16180   1.00
C1       0.25000    0.75000    0.35520   1.00
C1       0.25000    0.85520    0.25000   1.00
C1       0.14480    0.75000    0.25000   1.00
C1       0.35520    0.75000    0.25000   1.00
C1       0.25000    0.64480    0.25000   1.00
C1       0.25000    0.75000    0.14480   1.00
O1       0.75000    0.25000    0.25000   1.00
Zn1      0.71720    0.28280    0.28280   1.00
Zn1      0.78280    0.21720    0.28280   1.00
Zn1      0.78280    0.28280    0.21720   1.00
Zn1      0.71720    0.21720    0.21720   1.00
O2       0.72650    0.27350    0.33820   1.00
O2       0.72650    0.33820    0.27350   1.00
O2       0.66180    0.27350    0.27350   1.00
O2       0.77350    0.22650    0.33820   1.00
O2       0.83820    0.22650    0.27350   1.00
O2       0.77350    0.16180    0.27350   1.00
O2       0.77350    0.33820    0.22650   1.00
O2       0.83820    0.27350    0.22650   1.00
O2       0.77350    0.27350    0.16180   1.00
O2       0.66180    0.22650    0.22650   1.00
O2       0.72650    0.16180    0.22650   1.00
O2       0.72650    0.22650    0.16180   1.00
C1       0.75000    0.25000    0.35520   1.00
C1       0.75000    0.35520    0.25000   1.00
C1       0.64480    0.25000    0.25000   1.00
C1       0.85520    0.25000    0.25000   1.00
C1       0.75000    0.14480    0.25000   1.00
C1       0.75000    0.25000    0.14480   1.00
O1       0.25000    0.25000    0.25000   1.00
Zn1      0.28280    0.21720    0.21720   1.00
Zn1      0.21720    0.28280    0.21720   1.00
Zn1      0.21720    0.21720    0.28280   1.00
Zn1      0.28280    0.28280    0.28280   1.00
O2       0.27350    0.22650    0.16180   1.00
O2       0.27350    0.16180    0.22650   1.00
O2       0.33820    0.22650    0.22650   1.00
O2       0.22650    0.27350    0.16180   1.00
O2       0.16180    0.27350    0.22650   1.00
O2       0.22650    0.33820    0.22650   1.00
O2       0.22650    0.16180    0.27350   1.00
O2       0.16180    0.22650    0.27350   1.00
O2       0.22650    0.22650    0.33820   1.00
O2       0.33820    0.27350    0.27350   1.00
O2       0.27350    0.33820    0.27350   1.00
O2       0.27350    0.27350    0.33820   1.00
C1       0.25000    0.25000    0.14480   1.00
C1       0.25000    0.14480    0.25000   1.00
C1       0.35520    0.25000    0.25000   1.00
C1       0.14480    0.25000    0.25000   1.00
C1       0.25000    0.35520    0.25000   1.00
C1       0.25000    0.25000    0.35520   1.00
O1       0.75000    0.75000    0.25000   1.00
Zn1      0.78280    0.71720    0.21720   1.00
Zn1      0.71720    0.78280    0.21720   1.00
Zn1      0.71720    0.71720    0.28280   1.00
Zn1      0.78280    0.78280    0.28280   1.00
O2       0.77350    0.72650    0.16180   1.00
O2       0.77350    0.66180    0.22650   1.00
O2       0.83820    0.72650    0.22650   1.00
O2       0.72650    0.77350    0.16180   1.00
O2       0.66180    0.77350    0.22650   1.00
O2       0.72650    0.83820    0.22650   1.00
O2       0.72650    0.66180    0.27350   1.00
O2       0.66180    0.72650    0.27350   1.00
O2       0.72650    0.72650    0.33820   1.00
O2       0.83820    0.77350    0.27350   1.00
O2       0.77350    0.83820    0.27350   1.00
O2       0.77350    0.77350    0.33820   1.00
C1       0.75000    0.75000    0.14480   1.00
C1       0.75000    0.64480    0.25000   1.00
C1       0.85520    0.75000    0.25000   1.00
C1       0.64480    0.75000    0.25000   1.00
C1       0.75000    0.85520    0.25000   1.00
C1       0.75000    0.75000    0.35520   1.00
O1       0.75000    0.25000    0.75000   1.00
Zn1      0.78280    0.21720    0.71720   1.00
Zn1      0.71720    0.28280    0.71720   1.00
Zn1      0.71720    0.21720    0.78280   1.00
Zn1      0.78280    0.28280    0.78280   1.00
O2       0.77350    0.22650    0.66180   1.00
O2       0.77350    0.16180    0.72650   1.00
O2       0.83820    0.22650    0.72650   1.00
O2       0.72650    0.27350    0.66180   1.00
O2       0.66180    0.27350    0.72650   1.00
O2       0.72650    0.33820    0.72650   1.00
O2       0.72650    0.16180    0.77350   1.00
O2       0.66180    0.22650    0.77350   1.00
O2       0.72650    0.22650    0.83820   1.00
O2       0.83820    0.27350    0.77350   1.00
O2       0.77350    0.33820    0.77350   1.00
O2       0.77350    0.27350    0.83820   1.00
C1       0.75000    0.25000    0.64480   1.00
C1       0.75000    0.14480    0.75000   1.00
C1       0.85520    0.25000    0.75000   1.00
C1       0.64480    0.25000    0.75000   1.00
C1       0.75000    0.35520    0.75000   1.00
C1       0.75000    0.25000    0.85520   1.00
O1       0.25000    0.75000    0.75000   1.00
Zn1      0.28280    0.71720    0.71720   1.00
Zn1      0.21720    0.78280    0.71720   1.00
Zn1      0.21720    0.71720    0.78280   1.00
Zn1      0.28280    0.78280    0.78280   1.00
O2       0.27350    0.72650    0.66180   1.00
O2       0.27350    0.66180    0.72650   1.00
O2       0.33820    0.72650    0.72650   1.00
O2       0.22650    0.77350    0.66180   1.00
O2       0.16180    0.77350    0.72650   1.00
O2       0.22650    0.83820    0.72650   1.00
O2       0.22650    0.66180    0.77350   1.00
O2       0.16180    0.72650    0.77350   1.00
O2       0.22650    0.72650    0.83820   1.00
O2       0.33820    0.77350    0.77350   1.00
O2       0.27350    0.83820    0.77350   1.00
O2       0.27350    0.77350    0.83820   1.00
C1       0.25000    0.75000    0.64480   1.00
C1       0.25000    0.64480    0.75000   1.00
C1       0.35520    0.75000    0.75000   1.00
C1       0.14480    0.75000    0.75000   1.00
C1       0.25000    0.85520    0.75000   1.00
C1       0.25000    0.75000    0.85520   1.00
C4       0.74759    0.74814    1.02084   1.00
C4       0.74767    0.74887    0.97912   1.00
C3       0.71314    0.74501    1.04364   1.00
C3       0.71319    0.75011    0.95616   1.00
C3       0.78377    0.75131    1.04123   1.00
C3       0.78406    0.74822    0.95886   1.00
C2       0.74972    0.74884    1.10512   1.00
C2       0.75028    0.75116    0.89488   1.00
C3       0.71412    0.74556    1.08462   1.00
C3       0.71443    0.75086    0.91519   1.00
C3       0.78421    0.75108    1.08258   1.00
C3       0.78470    0.75068    0.91762   1.00
H1       0.68633    0.74209    1.03115   1.00
H1       0.68617    0.75076    0.96852   1.00
C5       0.81930    0.75452    1.02020   1.00
C5       0.81962    0.74548    0.97980   1.00
H1       0.68824    0.74348    1.09955   1.00
H1       0.68855    0.75141    0.90010   1.00
H1       0.81047    0.75228    1.09680   1.00
H1       0.81100    0.75270    0.90368   1.00
O3       0.85319    0.76406    1.03961   1.00
O3       0.85429    0.73706    0.96099   1.00
Si1      0.86685    0.80963    1.04247   1.00
Si1      0.86553    0.69152    0.95279   1.00
C6       0.90584    0.80255    1.07538   1.00
C6       0.88395    0.82352    0.99598   1.00
C6       0.83078    0.84048    1.06253   1.00
C6       0.83183    0.65511    0.96693   1.00
C6       0.87189    0.69008    0.90198   1.00
C6       0.91120    0.68293    0.97477   1.00
C6       0.89666    0.77661    1.11194   1.00
H2       0.92636    0.78553    1.05791   1.00
C6       0.92991    0.83806    1.09147   1.00
H2       0.89275    0.79554    0.98358   1.00
C6       0.85418    0.84140    0.96634   1.00
C6       0.92090    0.85024    0.99336   1.00
H2       0.82155    0.82412    1.08831   1.00
C6       0.84434    0.88142    1.07772   1.00
C6       0.79277    0.84947    1.03849   1.00
C6       0.81905    0.65352    1.01071   1.00
C6       0.79389    0.64870    0.94225   1.00
H2       0.84842    0.62835    0.96212   1.00
H2       0.84241    0.69372    0.89051   1.00
C6       0.89628    0.72418    0.88378   1.00
C6       0.88807    0.65142    0.88393   1.00
H2       0.93218    0.69447    0.95375   1.00
C6       0.91959    0.70552    1.01336   1.00
C6       0.92358    0.63961    0.98244   1.00
H2       0.88530    0.74806    1.10346   1.00
H2       0.87514    0.79056    1.13090   1.00
H2       0.92296    0.77123    1.12917   1.00
H2       0.96029    0.82947    1.09608   1.00
H2       0.92994    0.86292    1.07178   1.00
H2       0.91903    0.84826    1.11964   1.00
H2       0.86607    0.84092    0.93672   1.00
H2       0.82702    0.82498    0.96532   1.00
H2       0.84755    0.87171    0.97352   1.00
H2       0.94569    0.83735    1.00862   1.00
H2       0.93021    0.85422    0.96308   1.00
H2       0.91507    0.87914    1.00550   1.00
H2       0.86016    0.89740    1.05514   1.00
H2       0.81973    0.89951    1.08708   1.00
H2       0.86283    0.87870    1.10332   1.00
H2       0.79651    0.87440    1.01902   1.00
H2       0.78306    0.82523    1.02068   1.00
H2       0.76874    0.85656    1.05828   1.00
H2       0.79559    0.67406    1.01688   1.00
H2       0.80815    0.62445    1.01809   1.00
H2       0.84312    0.65969    1.03048   1.00
H2       0.77902    0.62192    0.95125   1.00
H2       0.77308    0.67241    0.94574   1.00
H2       0.80015    0.64540    0.91122   1.00
H2       0.89302    0.72449    0.85202   1.00
H2       0.88630    0.75256    0.89435   1.00
H2       0.92731    0.72148    0.89035   1.00
H2       0.87192    0.62596    0.89416   1.00
H2       0.88534    0.65199    0.85212   1.00
H2       0.91891    0.64735    0.89085   1.00
H2       0.89932    0.69758    1.03656   1.00
H2       0.94926    0.70035    1.02381   1.00
H2       0.91686    0.73667    1.00834   1.00
H2       0.95443    0.63789    0.99044   1.00
H2       0.90671    0.62670    1.00622   1.00
H2       0.91980    0.62150    0.95657   1.00
C4       0.74814    1.02084    0.74759   1.00
C4       0.74887    0.97912    0.74767   1.00
C3       0.74501    1.04364    0.71314   1.00
C3       0.75011    0.95616    0.71319   1.00
C3       0.75131    1.04123    0.78377   1.00
C3       0.74822    0.95886    0.78406   1.00
C2       0.74884    1.10512    0.74972   1.00
C2       0.75116    0.89488    0.75028   1.00
C3       0.74556    1.08462    0.71412   1.00
C3       0.75086    0.91519    0.71443   1.00
C3       0.75108    1.08258    0.78421   1.00
C3       0.75068    0.91762    0.78470   1.00
H1       0.74209    1.03115    0.68633   1.00
H1       0.75076    0.96852    0.68617   1.00
C5       0.75452    1.02020    0.81930   1.00
C5       0.74548    0.97980    0.81962   1.00
H1       0.74348    1.09955    0.68824   1.00
H1       0.75141    0.90010    0.68855   1.00
H1       0.75228    1.09680    0.81047   1.00
H1       0.75270    0.90368    0.81100   1.00
O3       0.76406    1.03961    0.85319   1.00
O3       0.73706    0.96099    0.85429   1.00
Si1      0.80963    1.04247    0.86685   1.00
Si1      0.69152    0.95279    0.86553   1.00
C6       0.80255    1.07538    0.90584   1.00
C6       0.82352    0.99598    0.88395   1.00
C6       0.84048    1.06253    0.83078   1.00
C6       0.65511    0.96693    0.83183   1.00
C6       0.69008    0.90198    0.87189   1.00
C6       0.68293    0.97477    0.91120   1.00
C6       0.77661    1.11194    0.89666   1.00
H2       0.78553    1.05791    0.92636   1.00
C6       0.83806    1.09147    0.92991   1.00
H2       0.79554    0.98358    0.89275   1.00
C6       0.84140    0.96634    0.85418   1.00
C6       0.85024    0.99336    0.92090   1.00
H2       0.82412    1.08831    0.82155   1.00
C6       0.88142    1.07772    0.84434   1.00
C6       0.84947    1.03849    0.79277   1.00
C6       0.65352    1.01071    0.81905   1.00
C6       0.64870    0.94225    0.79389   1.00
H2       0.62835    0.96212    0.84842   1.00
H2       0.69372    0.89051    0.84241   1.00
C6       0.72418    0.88378    0.89628   1.00
C6       0.65142    0.88393    0.88807   1.00
H2       0.69447    0.95375    0.93218   1.00
C6       0.70552    1.01336    0.91959   1.00
C6       0.63961    0.98244    0.92358   1.00
H2       0.74806    1.10346    0.88530   1.00
H2       0.79056    1.13090    0.87514   1.00
H2       0.77123    1.12917    0.92296   1.00
H2       0.82947    1.09608    0.96029   1.00
H2       0.86292    1.07178    0.92994   1.00
H2       0.84826    1.11964    0.91903   1.00
H2       0.84092    0.93672    0.86607   1.00
H2       0.82498    0.96532    0.82702   1.00
H2       0.87171    0.97352    0.84755   1.00
H2       0.83735    1.00862    0.94569   1.00
H2       0.85422    0.96308    0.93021   1.00
H2       0.87914    1.00550    0.91507   1.00
H2       0.89740    1.05514    0.86016   1.00
H2       0.89951    1.08708    0.81973   1.00
H2       0.87870    1.10332    0.86283   1.00
H2       0.87440    1.01902    0.79651   1.00
H2       0.82523    1.02068    0.78306   1.00
H2       0.85656    1.05828    0.76874   1.00
H2       0.67406    1.01688    0.79559   1.00
H2       0.62445    1.01809    0.80815   1.00
H2       0.65969    1.03048    0.84312   1.00
H2       0.62192    0.95125    0.77902   1.00
H2       0.67241    0.94574    0.77308   1.00
H2       0.64540    0.91122    0.80015   1.00
H2       0.72449    0.85202    0.89302   1.00
H2       0.75256    0.89435    0.88630   1.00
H2       0.72148    0.89035    0.92731   1.00
H2       0.62596    0.89416    0.87192   1.00
H2       0.65199    0.85212    0.88534   1.00
H2       0.64735    0.89085    0.91891   1.00
H2       0.69758    1.03656    0.89932   1.00
H2       0.70035    1.02381    0.94926   1.00
H2       0.73667    1.00834    0.91686   1.00
H2       0.63789    0.99044    0.95443   1.00
H2       0.62670    1.00622    0.90671   1.00
H2       0.62150    0.95657    0.91980   1.00
C4       0.47916    0.74759    0.75186   1.00
C4       0.52088    0.74767    0.75113   1.00
C3       0.45636    0.71314    0.75499   1.00
C3       0.54384    0.71319    0.74989   1.00
C3       0.45877    0.78377    0.74869   1.00
C3       0.54114    0.78406    0.75178   1.00
C2       0.39488    0.74972    0.75116   1.00
C2       0.60512    0.75028    0.74884   1.00
C3       0.41538    0.71412    0.75444   1.00
C3       0.58481    0.71443    0.74914   1.00
C3       0.41742    0.78421    0.74892   1.00
C3       0.58238    0.78470    0.74932   1.00
H1       0.46885    0.68633    0.75791   1.00
H1       0.53148    0.68617    0.74924   1.00
C5       0.47980    0.81930    0.74548   1.00
C5       0.52020    0.81962    0.75452   1.00
H1       0.40045    0.68824    0.75652   1.00
H1       0.59990    0.68855    0.74859   1.00
H1       0.40320    0.81047    0.74772   1.00
H1       0.59632    0.81100    0.74730   1.00
O3       0.46039    0.85319    0.73594   1.00
O3       0.53901    0.85429    0.76294   1.00
Si1      0.45753    0.86685    0.69037   1.00
Si1      0.54721    0.86553    0.80848   1.00
C6       0.42462    0.90584    0.69745   1.00
C6       0.50402    0.88395    0.67648   1.00
C6       0.43747    0.83078    0.65952   1.00
C6       0.53307    0.83183    0.84489   1.00
C6       0.59802    0.87189    0.80992   1.00
C6       0.52523    0.91120    0.81707   1.00
C6       0.38806    0.89666    0.72339   1.00
H2       0.44209    0.92636    0.71447   1.00
C6       0.40853    0.92991    0.66194   1.00
H2       0.51642    0.89275    0.70446   1.00
C6       0.53366    0.85418    0.65860   1.00
C6       0.50664    0.92090    0.64976   1.00
H2       0.41169    0.82155    0.67588   1.00
C6       0.42228    0.84434    0.61858   1.00
C6       0.46151    0.79277    0.65053   1.00
C6       0.48929    0.81905    0.84648   1.00
C6       0.55775    0.79389    0.85130   1.00
H2       0.53788    0.84842    0.87165   1.00
H2       0.60949    0.84241    0.80628   1.00
C6       0.61622    0.89628    0.77582   1.00
C6       0.61607    0.88807    0.84858   1.00
H2       0.54625    0.93218    0.80553   1.00
C6       0.48664    0.91959    0.79448   1.00
C6       0.51756    0.92358    0.86039   1.00
H2       0.39654    0.88530    0.75194   1.00
H2       0.36910    0.87514    0.70944   1.00
H2       0.37083    0.92296    0.72877   1.00
H2       0.40392    0.96029    0.67053   1.00
H2       0.42822    0.92994    0.63708   1.00
H2       0.38036    0.91903    0.65174   1.00
H2       0.56328    0.86607    0.65908   1.00
H2       0.53468    0.82702    0.67502   1.00
H2       0.52648    0.84755    0.62829   1.00
H2       0.49138    0.94569    0.66265   1.00
H2       0.53692    0.93021    0.64578   1.00
H2       0.49450    0.91507    0.62086   1.00
H2       0.44486    0.86016    0.60260   1.00
H2       0.41292    0.81973    0.60049   1.00
H2       0.39668    0.86283    0.62130   1.00
H2       0.48098    0.79651    0.62560   1.00
H2       0.47932    0.78306    0.67477   1.00
H2       0.44172    0.76874    0.64344   1.00
H2       0.48312    0.79559    0.82594   1.00
H2       0.48191    0.80815    0.87555   1.00
H2       0.46952    0.84312    0.84031   1.00
H2       0.54875    0.77902    0.87808   1.00
H2       0.55426    0.77308    0.82759   1.00
H2       0.58878    0.80015    0.85460   1.00
H2       0.64798    0.89302    0.77551   1.00
H2       0.60565    0.88630    0.74744   1.00
H2       0.60965    0.92731    0.77852   1.00
H2       0.60584    0.87192    0.87404   1.00
H2       0.64788    0.88534    0.84801   1.00
H2       0.60915    0.91891    0.85265   1.00
H2       0.46344    0.89932    0.80242   1.00
H2       0.47619    0.94926    0.79965   1.00
H2       0.49166    0.91686    0.76333   1.00
H2       0.50956    0.95443    0.86211   1.00
H2       0.49378    0.90671    0.87330   1.00
H2       0.54343    0.91980    0.87850   1.00
C4       1.02084    0.74759    0.74814   1.00
C4       0.97912    0.74767    0.74887   1.00
C3       1.04364    0.71314    0.74501   1.00
C3       0.95616    0.71319    0.75011   1.00
C3       1.04123    0.78377    0.75131   1.00
C3       0.95886    0.78406    0.74822   1.00
C2       1.10512    0.74972    0.74884   1.00
C2       0.89488    0.75028    0.75116   1.00
C3       1.08462    0.71412    0.74556   1.00
C3       0.91519    0.71443    0.75086   1.00
C3       1.08258    0.78421    0.75108   1.00
C3       0.91762    0.78470    0.75068   1.00
H1       1.03115    0.68633    0.74209   1.00
H1       0.96852    0.68617    0.75076   1.00
C5       1.02020    0.81930    0.75452   1.00
C5       0.97980    0.81962    0.74548   1.00
H1       1.09955    0.68824    0.74348   1.00
H1       0.90010    0.68855    0.75141   1.00
H1       1.09680    0.81047    0.75228   1.00
H1       0.90368    0.81100    0.75270   1.00
O3       1.03961    0.85319    0.76406   1.00
O3       0.96099    0.85429    0.73706   1.00
Si1      1.04247    0.86685    0.80963   1.00
Si1      0.95279    0.86553    0.69152   1.00
C6       1.07538    0.90584    0.80255   1.00
C6       0.99598    0.88395    0.82352   1.00
C6       1.06253    0.83078    0.84048   1.00
C6       0.96693    0.83183    0.65511   1.00
C6       0.90198    0.87189    0.69008   1.00
C6       0.97477    0.91120    0.68293   1.00
C6       1.11194    0.89666    0.77661   1.00
H2       1.05791    0.92636    0.78553   1.00
C6       1.09147    0.92991    0.83806   1.00
H2       0.98358    0.89275    0.79554   1.00
C6       0.96634    0.85418    0.84140   1.00
C6       0.99336    0.92090    0.85024   1.00
H2       1.08831    0.82155    0.82412   1.00
C6       1.07772    0.84434    0.88142   1.00
C6       1.03849    0.79277    0.84947   1.00
C6       1.01071    0.81905    0.65352   1.00
C6       0.94225    0.79389    0.64870   1.00
H2       0.96212    0.84842    0.62835   1.00
H2       0.89051    0.84241    0.69372   1.00
C6       0.88378    0.89628    0.72418   1.00
C6       0.88393    0.88807    0.65142   1.00
H2       0.95375    0.93218    0.69447   1.00
C6       1.01336    0.91959    0.70552   1.00
C6       0.98244    0.92358    0.63961   1.00
H2       1.10346    0.88530    0.74806   1.00
H2       1.13090    0.87514    0.79056   1.00
H2       1.12917    0.92296    0.77123   1.00
H2       1.09608    0.96029    0.82947   1.00
H2       1.07178    0.92994    0.86292   1.00
H2       1.11964    0.91903    0.84826   1.00
H2       0.93672    0.86607    0.84092   1.00
H2       0.96532    0.82702    0.82498   1.00
H2       0.97352    0.84755    0.87171   1.00
H2       1.00862    0.94569    0.83735   1.00
H2       0.96308    0.93021    0.85422   1.00
H2       1.00550    0.91507    0.87914   1.00
H2       1.05514    0.86016    0.89740   1.00
H2       1.08708    0.81973    0.89951   1.00
H2       1.10332    0.86283    0.87870   1.00
H2       1.01902    0.79651    0.87440   1.00
H2       1.02068    0.78306    0.82523   1.00
H2       1.05828    0.76874    0.85656   1.00
H2       1.01688    0.79559    0.67406   1.00
H2       1.01809    0.80815    0.62445   1.00
H2       1.03048    0.84312    0.65969   1.00
H2       0.95125    0.77902    0.62192   1.00
H2       0.94574    0.77308    0.67241   1.00
H2       0.91122    0.80015    0.64540   1.00
H2       0.85202    0.89302    0.72449   1.00
H2       0.89435    0.88630    0.75256   1.00
H2       0.89035    0.92731    0.72148   1.00
H2       0.89416    0.87192    0.62596   1.00
H2       0.85212    0.88534    0.65199   1.00
H2       0.89085    0.91891    0.64735   1.00
H2       1.03656    0.89932    0.69758   1.00
H2       1.02381    0.94926    0.70035   1.00
H2       1.00834    0.91686    0.73667   1.00
H2       0.99044    0.95443    0.63789   1.00
H2       1.00622    0.90671    0.62670   1.00
H2       0.95657    0.91980    0.62150   1.00
C4       0.75186    0.47916    0.74759   1.00
C4       0.75113    0.52088    0.74767   1.00
C3       0.75499    0.45636    0.71314   1.00
C3       0.74989    0.54384    0.71319   1.00
C3       0.74869    0.45877    0.78377   1.00
C3       0.75178    0.54114    0.78406   1.00
C2       0.75116    0.39488    0.74972   1.00
C2       0.74884    0.60512    0.75028   1.00
C3       0.75444    0.41538    0.71412   1.00
C3       0.74914    0.58481    0.71443   1.00
C3       0.74892    0.41742    0.78421   1.00
C3       0.74932    0.58238    0.78470   1.00
H1       0.75791    0.46885    0.68633   1.00
H1       0.74924    0.53148    0.68617   1.00
C5       0.74548    0.47980    0.81930   1.00
C5       0.75452    0.52020    0.81962   1.00
H1       0.75652    0.40045    0.68824   1.00
H1       0.74859    0.59990    0.68855   1.00
H1       0.74772    0.40320    0.81047   1.00
H1       0.74730    0.59632    0.81100   1.00
O3       0.73594    0.46039    0.85319   1.00
O3       0.76294    0.53901    0.85429   1.00
Si1      0.69037    0.45753    0.86685   1.00
Si1      0.80848    0.54721    0.86553   1.00
C6       0.69745    0.42462    0.90584   1.00
C6       0.67648    0.50402    0.88395   1.00
C6       0.65952    0.43747    0.83078   1.00
C6       0.84489    0.53307    0.83183   1.00
C6       0.80992    0.59802    0.87189   1.00
C6       0.81707    0.52523    0.91120   1.00
C6       0.72339    0.38806    0.89666   1.00
H2       0.71447    0.44209    0.92636   1.00
C6       0.66194    0.40853    0.92991   1.00
H2       0.70446    0.51642    0.89275   1.00
C6       0.65860    0.53366    0.85418   1.00
C6       0.64976    0.50664    0.92090   1.00
H2       0.67588    0.41169    0.82155   1.00
C6       0.61858    0.42228    0.84434   1.00
C6       0.65053    0.46151    0.79277   1.00
C6       0.84648    0.48929    0.81905   1.00
C6       0.85130    0.55775    0.79389   1.00
H2       0.87165    0.53788    0.84842   1.00
H2       0.80628    0.60949    0.84241   1.00
C6       0.77582    0.61622    0.89628   1.00
C6       0.84858    0.61607    0.88807   1.00
H2       0.80553    0.54625    0.93218   1.00
C6       0.79448    0.48664    0.91959   1.00
C6       0.86039    0.51756    0.92358   1.00
H2       0.75194    0.39654    0.88530   1.00
H2       0.70944    0.36910    0.87514   1.00
H2       0.72877    0.37083    0.92296   1.00
H2       0.67053    0.40392    0.96029   1.00
H2       0.63708    0.42822    0.92994   1.00
H2       0.65174    0.38036    0.91903   1.00
H2       0.65908    0.56328    0.86607   1.00
H2       0.67502    0.53468    0.82702   1.00
H2       0.62829    0.52648    0.84755   1.00
H2       0.66265    0.49138    0.94569   1.00
H2       0.64578    0.53692    0.93021   1.00
H2       0.62086    0.49450    0.91507   1.00
H2       0.60260    0.44486    0.86016   1.00
H2       0.60049    0.41292    0.81973   1.00
H2       0.62130    0.39668    0.86283   1.00
H2       0.62560    0.48098    0.79651   1.00
H2       0.67477    0.47932    0.78306   1.00
H2       0.64344    0.44172    0.76874   1.00
H2       0.82594    0.48312    0.79559   1.00
H2       0.87555    0.48191    0.80815   1.00
H2       0.84031    0.46952    0.84312   1.00
H2       0.87808    0.54875    0.77902   1.00
H2       0.82759    0.55426    0.77308   1.00
H2       0.85460    0.58878    0.80015   1.00
H2       0.77551    0.64798    0.89302   1.00
H2       0.74744    0.60565    0.88630   1.00
H2       0.77852    0.60965    0.92731   1.00
H2       0.87404    0.60584    0.87192   1.00
H2       0.84801    0.64788    0.88534   1.00
H2       0.85265    0.60915    0.91891   1.00
H2       0.80242    0.46344    0.89932   1.00
H2       0.79965    0.47619    0.94926   1.00
H2       0.76333    0.49166    0.91686   1.00
H2       0.86211    0.50956    0.95443   1.00
H2       0.87330    0.49378    0.90671   1.00
H2       0.87850    0.54343    0.91980   1.00
C4       0.74759    0.75186    0.47916   1.00
C4       0.74767    0.75113    0.52088   1.00
C3       0.71314    0.75499    0.45636   1.00
C3       0.71319    0.74989    0.54384   1.00
C3       0.78377    0.74869    0.45877   1.00
C3       0.78406    0.75178    0.54114   1.00
C2       0.74972    0.75116    0.39488   1.00
C2       0.75028    0.74884    0.60512   1.00
C3       0.71412    0.75444    0.41538   1.00
C3       0.71443    0.74914    0.58481   1.00
C3       0.78421    0.74892    0.41742   1.00
C3       0.78470    0.74932    0.58238   1.00
H1       0.68633    0.75791    0.46885   1.00
H1       0.68617    0.74924    0.53148   1.00
C5       0.81930    0.74548    0.47980   1.00
C5       0.81962    0.75452    0.52020   1.00
H1       0.68824    0.75652    0.40045   1.00
H1       0.68855    0.74859    0.59990   1.00
H1       0.81047    0.74772    0.40320   1.00
H1       0.81100    0.74730    0.59632   1.00
O3       0.85319    0.73594    0.46039   1.00
O3       0.85429    0.76294    0.53901   1.00
Si1      0.86685    0.69037    0.45753   1.00
Si1      0.86553    0.80848    0.54721   1.00
C6       0.90584    0.69745    0.42462   1.00
C6       0.88395    0.67648    0.50402   1.00
C6       0.83078    0.65952    0.43747   1.00
C6       0.83183    0.84489    0.53307   1.00
C6       0.87189    0.80992    0.59802   1.00
C6       0.91120    0.81707    0.52523   1.00
C6       0.89666    0.72339    0.38806   1.00
H2       0.92636    0.71447    0.44209   1.00
C6       0.92991    0.66194    0.40853   1.00
H2       0.89275    0.70446    0.51642   1.00
C6       0.85418    0.65860    0.53366   1.00
C6       0.92090    0.64976    0.50664   1.00
H2       0.82155    0.67588    0.41169   1.00
C6       0.84434    0.61858    0.42228   1.00
C6       0.79277    0.65053    0.46151   1.00
C6       0.81905    0.84648    0.48929   1.00
C6       0.79389    0.85130    0.55775   1.00
H2       0.84842    0.87165    0.53788   1.00
H2       0.84241    0.80628    0.60949   1.00
C6       0.89628    0.77582    0.61622   1.00
C6       0.88807    0.84858    0.61607   1.00
H2       0.93218    0.80553    0.54625   1.00
C6       0.91959    0.79448    0.48664   1.00
C6       0.92358    0.86039    0.51756   1.00
H2       0.88530    0.75194    0.39654   1.00
H2       0.87514    0.70944    0.36910   1.00
H2       0.92296    0.72877    0.37083   1.00
H2       0.96029    0.67053    0.40392   1.00
H2       0.92994    0.63708    0.42822   1.00
H2       0.91903    0.65174    0.38036   1.00
H2       0.86607    0.65908    0.56328   1.00
H2       0.82702    0.67502    0.53468   1.00
H2       0.84755    0.62829    0.52648   1.00
H2       0.94569    0.66265    0.49138   1.00
H2       0.93021    0.64578    0.53692   1.00
H2       0.91507    0.62086    0.49450   1.00
H2       0.86016    0.60260    0.44486   1.00
H2       0.81973    0.60049    0.41292   1.00
H2       0.86283    0.62130    0.39668   1.00
H2       0.79651    0.62560    0.48098   1.00
H2       0.78306    0.67477    0.47932   1.00
H2       0.76874    0.64344    0.44172   1.00
H2       0.79559    0.82594    0.48312   1.00
H2       0.80815    0.87555    0.48191   1.00
H2       0.84312    0.84031    0.46952   1.00
H2       0.77902    0.87808    0.54875   1.00
H2       0.77308    0.82759    0.55426   1.00
H2       0.80015    0.85460    0.58878   1.00
H2       0.89302    0.77551    0.64798   1.00
H2       0.88630    0.74744    0.60565   1.00
H2       0.92731    0.77852    0.60965   1.00
H2       0.87192    0.87404    0.60584   1.00
H2       0.88534    0.84801    0.64788   1.00
H2       0.91891    0.85265    0.60915   1.00
H2       0.89932    0.80242    0.46344   1.00
H2       0.94926    0.79965    0.47619   1.00
H2       0.91686    0.76333    0.49166   1.00
H2       0.95443    0.86211    0.50956   1.00
H2       0.90671    0.87330    0.49378   1.00
H2       0.91980    0.87850    0.54343   1.00
C4       0.24759    0.24814    1.02084   1.00
C4       0.24767    0.24887    0.97912   1.00
C3       0.21314    0.24501    1.04364   1.00
C3       0.21319    0.25011    0.95616   1.00
C3       0.28377    0.25131    1.04123   1.00
C3       0.28406    0.24822    0.95886   1.00
C2       0.24972    0.24884    1.10512   1.00
C2       0.25028    0.25116    0.89488   1.00
C3       0.21412    0.24556    1.08462   1.00
C3       0.21443    0.25086    0.91519   1.00
C3       0.28421    0.25108    1.08258   1.00
C3       0.28470    0.25068    0.91762   1.00
H1       0.18633    0.24209    1.03115   1.00
H1       0.18617    0.25076    0.96852   1.00
C5       0.31930    0.25452    1.02020   1.00
C5       0.31962    0.24548    0.97980   1.00
H1       0.18824    0.24348    1.09955   1.00
H1       0.18855    0.25141    0.90010   1.00
H1       0.31047    0.25228    1.09680   1.00
H1       0.31100    0.25270    0.90368   1.00
O3       0.35319    0.26406    1.03961   1.00
O3       0.35429    0.23706    0.96099   1.00
Si1      0.36685    0.30963    1.04247   1.00
Si1      0.36553    0.19152    0.95279   1.00
C6       0.40584    0.30255    1.07538   1.00
C6       0.38395    0.32352    0.99598   1.00
C6       0.33078    0.34048    1.06253   1.00
C6       0.33183    0.15511    0.96693   1.00
C6       0.37189    0.19008    0.90198   1.00
C6       0.41120    0.18293    0.97477   1.00
C6       0.39666    0.27661    1.11194   1.00
H2       0.42636    0.28553    1.05791   1.00
C6       0.42991    0.33806    1.09147   1.00
H2       0.39275    0.29554    0.98358   1.00
C6       0.35418    0.34140    0.96634   1.00
C6       0.42090    0.35024    0.99336   1.00
H2       0.32155    0.32412    1.08831   1.00
C6       0.34434    0.38142    1.07772   1.00
C6       0.29277    0.34947    1.03849   1.00
C6       0.31905    0.15352    1.01071   1.00
C6       0.29389    0.14870    0.94225   1.00
H2       0.34842    0.12835    0.96212   1.00
H2       0.34241    0.19372    0.89051   1.00
C6       0.39628    0.22418    0.88378   1.00
C6       0.38807    0.15142    0.88393   1.00
H2       0.43218    0.19447    0.95375   1.00
C6       0.41959    0.20552    1.01336   1.00
C6       0.42358    0.13961    0.98244   1.00
H2       0.38530    0.24806    1.10346   1.00
H2       0.37514    0.29056    1.13090   1.00
H2       0.42296    0.27123    1.12917   1.00
H2       0.46029    0.32947    1.09608   1.00
H2       0.42994    0.36292    1.07178   1.00
H2       0.41903    0.34826    1.11964   1.00
H2       0.36607    0.34092    0.93672   1.00
H2       0.32702    0.32498    0.96532   1.00
H2       0.34755    0.37171    0.97352   1.00
H2       0.44569    0.33735    1.00862   1.00
H2       0.43021    0.35422    0.96308   1.00
H2       0.41507    0.37914    1.00550   1.00
H2       0.36016    0.39740    1.05514   1.00
H2       0.31973    0.39951    1.08708   1.00
H2       0.36283    0.37870    1.10332   1.00
H2       0.29651    0.37440    1.01902   1.00
H2       0.28306    0.32523    1.02068   1.00
H2       0.26874    0.35656    1.05828   1.00
H2       0.29559    0.17406    1.01688   1.00
H2       0.30815    0.12445    1.01809   1.00
H2       0.34312    0.15969    1.03048   1.00
H2       0.27902    0.12192    0.95125   1.00
H2       0.27308    0.17241    0.94574   1.00
H2       0.30015    0.14540    0.91122   1.00
H2       0.39302    0.22449    0.85202   1.00
H2       0.38630    0.25256    0.89435   1.00
H2       0.42731    0.22148    0.89035   1.00
H2       0.37192    0.12596    0.89416   1.00
H2       0.38534    0.15199    0.85212   1.00
H2       0.41891    0.14735    0.89085   1.00
H2       0.39932    0.19758    1.03656   1.00
H2       0.44926    0.20035    1.02381   1.00
H2       0.41686    0.23667    1.00834   1.00
H2       0.45443    0.13789    0.99044   1.00
H2       0.40671    0.12670    1.00622   1.00
H2       0.41980    0.12150    0.95657   1.00
C4       0.24814    0.52084    0.74759   1.00
C4       0.24887    0.47912    0.74767   1.00
C3       0.24501    0.54364    0.71314   1.00
C3       0.25011    0.45616    0.71319   1.00
C3       0.25131    0.54123    0.78377   1.00
C3       0.24822    0.45886    0.78406   1.00
C2       0.24884    0.60512    0.74972   1.00
C2       0.25116    0.39488    0.75028   1.00
C3       0.24556    0.58462    0.71412   1.00
C3       0.25086    0.41519    0.71443   1.00
C3       0.25108    0.58258    0.78421   1.00
C3       0.25068    0.41762    0.78470   1.00
H1       0.24209    0.53115    0.68633   1.00
H1       0.25076    0.46852    0.68617   1.00
C5       0.25452    0.52020    0.81930   1.00
C5       0.24548    0.47980    0.81962   1.00
H1       0.24348    0.59955    0.68824   1.00
H1       0.25141    0.40010    0.68855   1.00
H1       0.25228    0.59680    0.81047   1.00
H1       0.25270    0.40368    0.81100   1.00
O3       0.26406    0.53961    0.85319   1.00
O3       0.23706    0.46099    0.85429   1.00
Si1      0.30963    0.54247    0.86685   1.00
Si1      0.19152    0.45279    0.86553   1.00
C6       0.30255    0.57538    0.90584   1.00
C6       0.32352    0.49598    0.88395   1.00
C6       0.34048    0.56253    0.83078   1.00
C6       0.15511    0.46693    0.83183   1.00
C6       0.19008    0.40198    0.87189   1.00
C6       0.18293    0.47477    0.91120   1.00
C6       0.27661    0.61194    0.89666   1.00
H2       0.28553    0.55791    0.92636   1.00
C6       0.33806    0.59147    0.92991   1.00
H2       0.29554    0.48358    0.89275   1.00
C6       0.34140    0.46634    0.85418   1.00
C6       0.35024    0.49336    0.92090   1.00
H2       0.32412    0.58831    0.82155   1.00
C6       0.38142    0.57772    0.84434   1.00
C6       0.34947    0.53849    0.79277   1.00
C6       0.15352    0.51071    0.81905   1.00
C6       0.14870    0.44225    0.79389   1.00
H2       0.12835    0.46212    0.84842   1.00
H2       0.19372    0.39051    0.84241   1.00
C6       0.22418    0.38378    0.89628   1.00
C6       0.15142    0.38393    0.88807   1.00
H2       0.19447    0.45375    0.93218   1.00
C6       0.20552    0.51336    0.91959   1.00
C6       0.13961    0.48244    0.92358   1.00
H2       0.24806    0.60346    0.88530   1.00
H2       0.29056    0.63090    0.87514   1.00
H2       0.27123    0.62917    0.92296   1.00
H2       0.32947    0.59608    0.96029   1.00
H2       0.36292    0.57178    0.92994   1.00
H2       0.34826    0.61964    0.91903   1.00
H2       0.34092    0.43672    0.86607   1.00
H2       0.32498    0.46532    0.82702   1.00
H2       0.37171    0.47352    0.84755   1.00
H2       0.33735    0.50862    0.94569   1.00
H2       0.35422    0.46308    0.93021   1.00
H2       0.37914    0.50550    0.91507   1.00
H2       0.39740    0.55514    0.86016   1.00
H2       0.39951    0.58708    0.81973   1.00
H2       0.37870    0.60332    0.86283   1.00
H2       0.37440    0.51902    0.79651   1.00
H2       0.32523    0.52068    0.78306   1.00
H2       0.35656    0.55828    0.76874   1.00
H2       0.17406    0.51688    0.79559   1.00
H2       0.12445    0.51809    0.80815   1.00
H2       0.15969    0.53048    0.84312   1.00
H2       0.12192    0.45125    0.77902   1.00
H2       0.17241    0.44574    0.77308   1.00
H2       0.14540    0.41122    0.80015   1.00
H2       0.22449    0.35202    0.89302   1.00
H2       0.25256    0.39435    0.88630   1.00
H2       0.22148    0.39035    0.92731   1.00
H2       0.12596    0.39416    0.87192   1.00
H2       0.15199    0.35212    0.88534   1.00
H2       0.14735    0.39085    0.91891   1.00
H2       0.19758    0.53656    0.89932   1.00
H2       0.20035    0.52381    0.94926   1.00
H2       0.23667    0.50834    0.91686   1.00
H2       0.13789    0.49044    0.95443   1.00
H2       0.12670    0.50622    0.90671   1.00
H2       0.12150    0.45657    0.91980   1.00
C4       -0.02084   0.24759    0.75186   1.00
C4       0.02088    0.24767    0.75113   1.00
C3       -0.04364   0.21314    0.75499   1.00
C3       0.04384    0.21319    0.74989   1.00
C3       -0.04123   0.28377    0.74869   1.00
C3       0.04114    0.28406    0.75178   1.00
C2       -0.10512   0.24972    0.75116   1.00
C2       0.10512    0.25028    0.74884   1.00
C3       -0.08462   0.21412    0.75444   1.00
C3       0.08481    0.21443    0.74914   1.00
C3       -0.08258   0.28421    0.74892   1.00
C3       0.08238    0.28470    0.74932   1.00
H1       -0.03115   0.18633    0.75791   1.00
H1       0.03148    0.18617    0.74924   1.00
C5       -0.02020   0.31930    0.74548   1.00
C5       0.02020    0.31962    0.75452   1.00
H1       -0.09955   0.18824    0.75652   1.00
H1       0.09990    0.18855    0.74859   1.00
H1       -0.09680   0.31047    0.74772   1.00
H1       0.09632    0.31100    0.74730   1.00
O3       -0.03961   0.35319    0.73594   1.00
O3       0.03901    0.35429    0.76294   1.00
Si1      -0.04247   0.36685    0.69037   1.00
Si1      0.04721    0.36553    0.80848   1.00
C6       -0.07538   0.40584    0.69745   1.00
C6       0.00402    0.38395    0.67648   1.00
C6       -0.06253   0.33078    0.65952   1.00
C6       0.03307    0.33183    0.84489   1.00
C6       0.09802    0.37189    0.80992   1.00
C6       0.02523    0.41120    0.81707   1.00
C6       -0.11194   0.39666    0.72339   1.00
H2       -0.05791   0.42636    0.71447   1.00
C6       -0.09147   0.42991    0.66194   1.00
H2       0.01642    0.39275    0.70446   1.00
C6       0.03366    0.35418    0.65860   1.00
C6       0.00664    0.42090    0.64976   1.00
H2       -0.08831   0.32155    0.67588   1.00
C6       -0.07772   0.34434    0.61858   1.00
C6       -0.03849   0.29277    0.65053   1.00
C6       -0.01071   0.31905    0.84648   1.00
C6       0.05775    0.29389    0.85130   1.00
H2       0.03788    0.34842    0.87165   1.00
H2       0.10949    0.34241    0.80628   1.00
C6       0.11622    0.39628    0.77582   1.00
C6       0.11607    0.38807    0.84858   1.00
H2       0.04625    0.43218    0.80553   1.00
C6       -0.01336   0.41959    0.79448   1.00
C6       0.01756    0.42358    0.86039   1.00
H2       -0.10346   0.38530    0.75194   1.00
H2       -0.13090   0.37514    0.70944   1.00
H2       -0.12917   0.42296    0.72877   1.00
H2       -0.09608   0.46029    0.67053   1.00
H2       -0.07178   0.42994    0.63708   1.00
H2       -0.11964   0.41903    0.65174   1.00
H2       0.06328    0.36607    0.65908   1.00
H2       0.03468    0.32702    0.67502   1.00
H2       0.02648    0.34755    0.62829   1.00
H2       -0.00862   0.44569    0.66265   1.00
H2       0.03692    0.43021    0.64578   1.00
H2       -0.00550   0.41507    0.62086   1.00
H2       -0.05514   0.36016    0.60260   1.00
H2       -0.08708   0.31973    0.60049   1.00
H2       -0.10332   0.36283    0.62130   1.00
H2       -0.01902   0.29651    0.62560   1.00
H2       -0.02068   0.28306    0.67477   1.00
H2       -0.05828   0.26874    0.64344   1.00
H2       -0.01688   0.29559    0.82594   1.00
H2       -0.01809   0.30815    0.87555   1.00
H2       -0.03048   0.34312    0.84031   1.00
H2       0.04875    0.27902    0.87808   1.00
H2       0.05426    0.27308    0.82759   1.00
H2       0.08878    0.30015    0.85460   1.00
H2       0.14798    0.39302    0.77551   1.00
H2       0.10565    0.38630    0.74744   1.00
H2       0.10965    0.42731    0.77852   1.00
H2       0.10584    0.37192    0.87404   1.00
H2       0.14788    0.38534    0.84801   1.00
H2       0.10915    0.41891    0.85265   1.00
H2       -0.03656   0.39932    0.80242   1.00
H2       -0.02381   0.44926    0.79965   1.00
H2       -0.00834   0.41686    0.76333   1.00
H2       0.00956    0.45443    0.86211   1.00
H2       -0.00622   0.40671    0.87330   1.00
H2       0.04343    0.41980    0.87850   1.00
C4       0.52084    0.24759    0.74814   1.00
C4       0.47912    0.24767    0.74887   1.00
C3       0.54364    0.21314    0.74501   1.00
C3       0.45616    0.21319    0.75011   1.00
C3       0.54123    0.28377    0.75131   1.00
C3       0.45886    0.28406    0.74822   1.00
C2       0.60512    0.24972    0.74884   1.00
C2       0.39488    0.25028    0.75116   1.00
C3       0.58462    0.21412    0.74556   1.00
C3       0.41519    0.21443    0.75086   1.00
C3       0.58258    0.28421    0.75108   1.00
C3       0.41762    0.28470    0.75068   1.00
H1       0.53115    0.18633    0.74209   1.00
H1       0.46852    0.18617    0.75076   1.00
C5       0.52020    0.31930    0.75452   1.00
C5       0.47980    0.31962    0.74548   1.00
H1       0.59955    0.18824    0.74348   1.00
H1       0.40010    0.18855    0.75141   1.00
H1       0.59680    0.31047    0.75228   1.00
H1       0.40368    0.31100    0.75270   1.00
O3       0.53961    0.35319    0.76406   1.00
O3       0.46099    0.35429    0.73706   1.00
Si1      0.54247    0.36685    0.80963   1.00
Si1      0.45279    0.36553    0.69152   1.00
C6       0.57538    0.40584    0.80255   1.00
C6       0.49598    0.38395    0.82352   1.00
C6       0.56253    0.33078    0.84048   1.00
C6       0.46693    0.33183    0.65511   1.00
C6       0.40198    0.37189    0.69008   1.00
C6       0.47477    0.41120    0.68293   1.00
C6       0.61194    0.39666    0.77661   1.00
H2       0.55791    0.42636    0.78553   1.00
C6       0.59147    0.42991    0.83806   1.00
H2       0.48358    0.39275    0.79554   1.00
C6       0.46634    0.35418    0.84140   1.00
C6       0.49336    0.42090    0.85024   1.00
H2       0.58831    0.32155    0.82412   1.00
C6       0.57772    0.34434    0.88142   1.00
C6       0.53849    0.29277    0.84947   1.00
C6       0.51071    0.31905    0.65352   1.00
C6       0.44225    0.29389    0.64870   1.00
H2       0.46212    0.34842    0.62835   1.00
H2       0.39051    0.34241    0.69372   1.00
C6       0.38378    0.39628    0.72418   1.00
C6       0.38393    0.38807    0.65142   1.00
H2       0.45375    0.43218    0.69447   1.00
C6       0.51336    0.41959    0.70552   1.00
C6       0.48244    0.42358    0.63961   1.00
H2       0.60346    0.38530    0.74806   1.00
H2       0.63090    0.37514    0.79056   1.00
H2       0.62917    0.42296    0.77123   1.00
H2       0.59608    0.46029    0.82947   1.00
H2       0.57178    0.42994    0.86292   1.00
H2       0.61964    0.41903    0.84826   1.00
H2       0.43672    0.36607    0.84092   1.00
H2       0.46532    0.32702    0.82498   1.00
H2       0.47352    0.34755    0.87171   1.00
H2       0.50862    0.44569    0.83735   1.00
H2       0.46308    0.43021    0.85422   1.00
H2       0.50550    0.41507    0.87914   1.00
H2       0.55514    0.36016    0.89740   1.00
H2       0.58708    0.31973    0.89951   1.00
H2       0.60332    0.36283    0.87870   1.00
H2       0.51902    0.29651    0.87440   1.00
H2       0.52068    0.28306    0.82523   1.00
H2       0.55828    0.26874    0.85656   1.00
H2       0.51688    0.29559    0.67406   1.00
H2       0.51809    0.30815    0.62445   1.00
H2       0.53048    0.34312    0.65969   1.00
H2       0.45125    0.27902    0.62192   1.00
H2       0.44574    0.27308    0.67241   1.00
H2       0.41122    0.30015    0.64540   1.00
H2       0.35202    0.39302    0.72449   1.00
H2       0.39435    0.38630    0.75256   1.00
H2       0.39035    0.42731    0.72148   1.00
H2       0.39416    0.37192    0.62596   1.00
H2       0.35212    0.38534    0.65199   1.00
H2       0.39085    0.41891    0.64735   1.00
H2       0.53656    0.39932    0.69758   1.00
H2       0.52381    0.44926    0.70035   1.00
H2       0.50834    0.41686    0.73667   1.00
H2       0.49044    0.45443    0.63789   1.00
H2       0.50622    0.40671    0.62670   1.00
H2       0.45657    0.41980    0.62150   1.00
C4       0.25186    -0.02084   0.74759   1.00
C4       0.25113    0.02088    0.74767   1.00
C3       0.25499    -0.04364   0.71314   1.00
C3       0.24989    0.04384    0.71319   1.00
C3       0.24869    -0.04123   0.78377   1.00
C3       0.25178    0.04114    0.78406   1.00
C2       0.25116    -0.10512   0.74972   1.00
C2       0.24884    0.10512    0.75028   1.00
C3       0.25444    -0.08462   0.71412   1.00
C3       0.24914    0.08481    0.71443   1.00
C3       0.24892    -0.08258   0.78421   1.00
C3       0.24932    0.08238    0.78470   1.00
H1       0.25791    -0.03115   0.68633   1.00
H1       0.24924    0.03148    0.68617   1.00
C5       0.24548    -0.02020   0.81930   1.00
C5       0.25452    0.02020    0.81962   1.00
H1       0.25652    -0.09955   0.68824   1.00
H1       0.24859    0.09990    0.68855   1.00
H1       0.24772    -0.09680   0.81047   1.00
H1       0.24730    0.09632    0.81100   1.00
O3       0.23594    -0.03961   0.85319   1.00
O3       0.26294    0.03901    0.85429   1.00
Si1      0.19037    -0.04247   0.86685   1.00
Si1      0.30848    0.04721    0.86553   1.00
C6       0.19745    -0.07538   0.90584   1.00
C6       0.17648    0.00402    0.88395   1.00
C6       0.15952    -0.06253   0.83078   1.00
C6       0.34489    0.03307    0.83183   1.00
C6       0.30992    0.09802    0.87189   1.00
C6       0.31707    0.02523    0.91120   1.00
C6       0.22339    -0.11194   0.89666   1.00
H2       0.21447    -0.05791   0.92636   1.00
C6       0.16194    -0.09147   0.92991   1.00
H2       0.20446    0.01642    0.89275   1.00
C6       0.15860    0.03366    0.85418   1.00
C6       0.14976    0.00664    0.92090   1.00
H2       0.17588    -0.08831   0.82155   1.00
C6       0.11858    -0.07772   0.84434   1.00
C6       0.15053    -0.03849   0.79277   1.00
C6       0.34648    -0.01071   0.81905   1.00
C6       0.35130    0.05775    0.79389   1.00
H2       0.37165    0.03788    0.84842   1.00
H2       0.30628    0.10949    0.84241   1.00
C6       0.27582    0.11622    0.89628   1.00
C6       0.34858    0.11607    0.88807   1.00
H2       0.30553    0.04625    0.93218   1.00
C6       0.29448    -0.01336   0.91959   1.00
C6       0.36039    0.01756    0.92358   1.00
H2       0.25194    -0.10346   0.88530   1.00
H2       0.20944    -0.13090   0.87514   1.00
H2       0.22877    -0.12917   0.92296   1.00
H2       0.17053    -0.09608   0.96029   1.00
H2       0.13708    -0.07178   0.92994   1.00
H2       0.15174    -0.11964   0.91903   1.00
H2       0.15908    0.06328    0.86607   1.00
H2       0.17502    0.03468    0.82702   1.00
H2       0.12829    0.02648    0.84755   1.00
H2       0.16265    -0.00862   0.94569   1.00
H2       0.14578    0.03692    0.93021   1.00
H2       0.12086    -0.00550   0.91507   1.00
H2       0.10260    -0.05514   0.86016   1.00
H2       0.10049    -0.08708   0.81973   1.00
H2       0.12130    -0.10332   0.86283   1.00
H2       0.12560    -0.01902   0.79651   1.00
H2       0.17477    -0.02068   0.78306   1.00
H2       0.14344    -0.05828   0.76874   1.00
H2       0.32594    -0.01688   0.79559   1.00
H2       0.37555    -0.01809   0.80815   1.00
H2       0.34031    -0.03048   0.84312   1.00
H2       0.37808    0.04875    0.77902   1.00
H2       0.32759    0.05426    0.77308   1.00
H2       0.35460    0.08878    0.80015   1.00
H2       0.27551    0.14798    0.89302   1.00
H2       0.24744    0.10565    0.88630   1.00
H2       0.27852    0.10965    0.92731   1.00
H2       0.37404    0.10584    0.87192   1.00
H2       0.34801    0.14788    0.88534   1.00
H2       0.35265    0.10915    0.91891   1.00
H2       0.30242    -0.03656   0.89932   1.00
H2       0.29965    -0.02381   0.94926   1.00
H2       0.26333    -0.00834   0.91686   1.00
H2       0.36211    0.00956    0.95443   1.00
H2       0.37330    -0.00622   0.90671   1.00
H2       0.37850    0.04343    0.91980   1.00
C4       0.24759    0.25186    0.47916   1.00
C4       0.24767    0.25113    0.52088   1.00
C3       0.21314    0.25499    0.45636   1.00
C3       0.21319    0.24989    0.54384   1.00
C3       0.28377    0.24869    0.45877   1.00
C3       0.28406    0.25178    0.54114   1.00
C2       0.24972    0.25116    0.39488   1.00
C2       0.25028    0.24884    0.60512   1.00
C3       0.21412    0.25444    0.41538   1.00
C3       0.21443    0.24914    0.58481   1.00
C3       0.28421    0.24892    0.41742   1.00
C3       0.28470    0.24932    0.58238   1.00
H1       0.18633    0.25791    0.46885   1.00
H1       0.18617    0.24924    0.53148   1.00
C5       0.31930    0.24548    0.47980   1.00
C5       0.31962    0.25452    0.52020   1.00
H1       0.18824    0.25652    0.40045   1.00
H1       0.18855    0.24859    0.59990   1.00
H1       0.31047    0.24772    0.40320   1.00
H1       0.31100    0.24730    0.59632   1.00
O3       0.35319    0.23594    0.46039   1.00
O3       0.35429    0.26294    0.53901   1.00
Si1      0.36685    0.19037    0.45753   1.00
Si1      0.36553    0.30848    0.54721   1.00
C6       0.40584    0.19745    0.42462   1.00
C6       0.38395    0.17648    0.50402   1.00
C6       0.33078    0.15952    0.43747   1.00
C6       0.33183    0.34489    0.53307   1.00
C6       0.37189    0.30992    0.59802   1.00
C6       0.41120    0.31707    0.52523   1.00
C6       0.39666    0.22339    0.38806   1.00
H2       0.42636    0.21447    0.44209   1.00
C6       0.42991    0.16194    0.40853   1.00
H2       0.39275    0.20446    0.51642   1.00
C6       0.35418    0.15860    0.53366   1.00
C6       0.42090    0.14976    0.50664   1.00
H2       0.32155    0.17588    0.41169   1.00
C6       0.34434    0.11858    0.42228   1.00
C6       0.29277    0.15053    0.46151   1.00
C6       0.31905    0.34648    0.48929   1.00
C6       0.29389    0.35130    0.55775   1.00
H2       0.34842    0.37165    0.53788   1.00
H2       0.34241    0.30628    0.60949   1.00
C6       0.39628    0.27582    0.61622   1.00
C6       0.38807    0.34858    0.61607   1.00
H2       0.43218    0.30553    0.54625   1.00
C6       0.41959    0.29448    0.48664   1.00
C6       0.42358    0.36039    0.51756   1.00
H2       0.38530    0.25194    0.39654   1.00
H2       0.37514    0.20944    0.36910   1.00
H2       0.42296    0.22877    0.37083   1.00
H2       0.46029    0.17053    0.40392   1.00
H2       0.42994    0.13708    0.42822   1.00
H2       0.41903    0.15174    0.38036   1.00
H2       0.36607    0.15908    0.56328   1.00
H2       0.32702    0.17502    0.53468   1.00
H2       0.34755    0.12829    0.52648   1.00
H2       0.44569    0.16265    0.49138   1.00
H2       0.43021    0.14578    0.53692   1.00
H2       0.41507    0.12086    0.49450   1.00
H2       0.36016    0.10260    0.44486   1.00
H2       0.31973    0.10049    0.41292   1.00
H2       0.36283    0.12130    0.39668   1.00
H2       0.29651    0.12560    0.48098   1.00
H2       0.28306    0.17477    0.47932   1.00
H2       0.26874    0.14344    0.44172   1.00
H2       0.29559    0.32594    0.48312   1.00
H2       0.30815    0.37555    0.48191   1.00
H2       0.34312    0.34031    0.46952   1.00
H2       0.27902    0.37808    0.54875   1.00
H2       0.27308    0.32759    0.55426   1.00
H2       0.30015    0.35460    0.58878   1.00
H2       0.39302    0.27551    0.64798   1.00
H2       0.38630    0.24744    0.60565   1.00
H2       0.42731    0.27852    0.60965   1.00
H2       0.37192    0.37404    0.60584   1.00
H2       0.38534    0.34801    0.64788   1.00
H2       0.41891    0.35265    0.60915   1.00
H2       0.39932    0.30242    0.46344   1.00
H2       0.44926    0.29965    0.47619   1.00
H2       0.41686    0.26333    0.49166   1.00
H2       0.45443    0.36211    0.50956   1.00
H2       0.40671    0.37330    0.49378   1.00
H2       0.41980    0.37850    0.54343   1.00
C4       0.24759    0.74814    0.52084   1.00
C4       0.24767    0.74887    0.47912   1.00
C3       0.21314    0.74501    0.54364   1.00
C3       0.21319    0.75011    0.45616   1.00
C3       0.28377    0.75131    0.54123   1.00
C3       0.28406    0.74822    0.45886   1.00
C2       0.24972    0.74884    0.60512   1.00
C2       0.25028    0.75116    0.39488   1.00
C3       0.21412    0.74556    0.58462   1.00
C3       0.21443    0.75086    0.41519   1.00
C3       0.28421    0.75108    0.58258   1.00
C3       0.28470    0.75068    0.41762   1.00
H1       0.18633    0.74209    0.53115   1.00
H1       0.18617    0.75076    0.46852   1.00
C5       0.31930    0.75452    0.52020   1.00
C5       0.31962    0.74548    0.47980   1.00
H1       0.18824    0.74348    0.59955   1.00
H1       0.18855    0.75141    0.40010   1.00
H1       0.31047    0.75228    0.59680   1.00
H1       0.31100    0.75270    0.40368   1.00
O3       0.35319    0.76406    0.53961   1.00
O3       0.35429    0.73706    0.46099   1.00
Si1      0.36685    0.80963    0.54247   1.00
Si1      0.36553    0.69152    0.45279   1.00
C6       0.40584    0.80255    0.57538   1.00
C6       0.38395    0.82352    0.49598   1.00
C6       0.33078    0.84048    0.56253   1.00
C6       0.33183    0.65511    0.46693   1.00
C6       0.37189    0.69008    0.40198   1.00
C6       0.41120    0.68293    0.47477   1.00
C6       0.39666    0.77661    0.61194   1.00
H2       0.42636    0.78553    0.55791   1.00
C6       0.42991    0.83806    0.59147   1.00
H2       0.39275    0.79554    0.48358   1.00
C6       0.35418    0.84140    0.46634   1.00
C6       0.42090    0.85024    0.49336   1.00
H2       0.32155    0.82412    0.58831   1.00
C6       0.34434    0.88142    0.57772   1.00
C6       0.29277    0.84947    0.53849   1.00
C6       0.31905    0.65352    0.51071   1.00
C6       0.29389    0.64870    0.44225   1.00
H2       0.34842    0.62835    0.46212   1.00
H2       0.34241    0.69372    0.39051   1.00
C6       0.39628    0.72418    0.38378   1.00
C6       0.38807    0.65142    0.38393   1.00
H2       0.43218    0.69447    0.45375   1.00
C6       0.41959    0.70552    0.51336   1.00
C6       0.42358    0.63961    0.48244   1.00
H2       0.38530    0.74806    0.60346   1.00
H2       0.37514    0.79056    0.63090   1.00
H2       0.42296    0.77123    0.62917   1.00
H2       0.46029    0.82947    0.59608   1.00
H2       0.42994    0.86292    0.57178   1.00
H2       0.41903    0.84826    0.61964   1.00
H2       0.36607    0.84092    0.43672   1.00
H2       0.32702    0.82498    0.46532   1.00
H2       0.34755    0.87171    0.47352   1.00
H2       0.44569    0.83735    0.50862   1.00
H2       0.43021    0.85422    0.46308   1.00
H2       0.41507    0.87914    0.50550   1.00
H2       0.36016    0.89740    0.55514   1.00
H2       0.31973    0.89951    0.58708   1.00
H2       0.36283    0.87870    0.60332   1.00
H2       0.29651    0.87440    0.51902   1.00
H2       0.28306    0.82523    0.52068   1.00
H2       0.26874    0.85656    0.55828   1.00
H2       0.29559    0.67406    0.51688   1.00
H2       0.30815    0.62445    0.51809   1.00
H2       0.34312    0.65969    0.53048   1.00
H2       0.27902    0.62192    0.45125   1.00
H2       0.27308    0.67241    0.44574   1.00
H2       0.30015    0.64540    0.41122   1.00
H2       0.39302    0.72449    0.35202   1.00
H2       0.38630    0.75256    0.39435   1.00
H2       0.42731    0.72148    0.39035   1.00
H2       0.37192    0.62596    0.39416   1.00
H2       0.38534    0.65199    0.35212   1.00
H2       0.41891    0.64735    0.39085   1.00
H2       0.39932    0.69758    0.53656   1.00
H2       0.44926    0.70035    0.52381   1.00
H2       0.41686    0.73667    0.50834   1.00
H2       0.45443    0.63789    0.49044   1.00
H2       0.40671    0.62670    0.50622   1.00
H2       0.41980    0.62150    0.45657   1.00
C4       0.24814    1.02084    0.24759   1.00
C4       0.24887    0.97912    0.24767   1.00
C3       0.24501    1.04364    0.21314   1.00
C3       0.25011    0.95616    0.21319   1.00
C3       0.25131    1.04123    0.28377   1.00
C3       0.24822    0.95886    0.28406   1.00
C2       0.24884    1.10512    0.24972   1.00
C2       0.25116    0.89488    0.25028   1.00
C3       0.24556    1.08462    0.21412   1.00
C3       0.25086    0.91519    0.21443   1.00
C3       0.25108    1.08258    0.28421   1.00
C3       0.25068    0.91762    0.28470   1.00
H1       0.24209    1.03115    0.18633   1.00
H1       0.25076    0.96852    0.18617   1.00
C5       0.25452    1.02020    0.31930   1.00
C5       0.24548    0.97980    0.31962   1.00
H1       0.24348    1.09955    0.18824   1.00
H1       0.25141    0.90010    0.18855   1.00
H1       0.25228    1.09680    0.31047   1.00
H1       0.25270    0.90368    0.31100   1.00
O3       0.26406    1.03961    0.35319   1.00
O3       0.23706    0.96099    0.35429   1.00
Si1      0.30963    1.04247    0.36685   1.00
Si1      0.19152    0.95279    0.36553   1.00
C6       0.30255    1.07538    0.40584   1.00
C6       0.32352    0.99598    0.38395   1.00
C6       0.34048    1.06253    0.33078   1.00
C6       0.15511    0.96693    0.33183   1.00
C6       0.19008    0.90198    0.37189   1.00
C6       0.18293    0.97477    0.41120   1.00
C6       0.27661    1.11194    0.39666   1.00
H2       0.28553    1.05791    0.42636   1.00
C6       0.33806    1.09147    0.42991   1.00
H2       0.29554    0.98358    0.39275   1.00
C6       0.34140    0.96634    0.35418   1.00
C6       0.35024    0.99336    0.42090   1.00
H2       0.32412    1.08831    0.32155   1.00
C6       0.38142    1.07772    0.34434   1.00
C6       0.34947    1.03849    0.29277   1.00
C6       0.15352    1.01071    0.31905   1.00
C6       0.14870    0.94225    0.29389   1.00
H2       0.12835    0.96212    0.34842   1.00
H2       0.19372    0.89051    0.34241   1.00
C6       0.22418    0.88378    0.39628   1.00
C6       0.15142    0.88393    0.38807   1.00
H2       0.19447    0.95375    0.43218   1.00
C6       0.20552    1.01336    0.41959   1.00
C6       0.13961    0.98244    0.42358   1.00
H2       0.24806    1.10346    0.38530   1.00
H2       0.29056    1.13090    0.37514   1.00
H2       0.27123    1.12917    0.42296   1.00
H2       0.32947    1.09608    0.46029   1.00
H2       0.36292    1.07178    0.42994   1.00
H2       0.34826    1.11964    0.41903   1.00
H2       0.34092    0.93672    0.36607   1.00
H2       0.32498    0.96532    0.32702   1.00
H2       0.37171    0.97352    0.34755   1.00
H2       0.33735    1.00862    0.44569   1.00
H2       0.35422    0.96308    0.43021   1.00
H2       0.37914    1.00550    0.41507   1.00
H2       0.39740    1.05514    0.36016   1.00
H2       0.39951    1.08708    0.31973   1.00
H2       0.37870    1.10332    0.36283   1.00
H2       0.37440    1.01902    0.29651   1.00
H2       0.32523    1.02068    0.28306   1.00
H2       0.35656    1.05828    0.26874   1.00
H2       0.17406    1.01688    0.29559   1.00
H2       0.12445    1.01809    0.30815   1.00
H2       0.15969    1.03048    0.34312   1.00
H2       0.12192    0.95125    0.27902   1.00
H2       0.17241    0.94574    0.27308   1.00
H2       0.14540    0.91122    0.30015   1.00
H2       0.22449    0.85202    0.39302   1.00
H2       0.25256    0.89435    0.38630   1.00
H2       0.22148    0.89035    0.42731   1.00
H2       0.12596    0.89416    0.37192   1.00
H2       0.15199    0.85212    0.38534   1.00
H2       0.14735    0.89085    0.41891   1.00
H2       0.19758    1.03656    0.39932   1.00
H2       0.20035    1.02381    0.44926   1.00
H2       0.23667    1.00834    0.41686   1.00
H2       0.13789    0.99044    0.45443   1.00
H2       0.12670    1.00622    0.40671   1.00
H2       0.12150    0.95657    0.41980   1.00
C4       -0.02084   0.74759    0.25186   1.00
C4       0.02088    0.74767    0.25113   1.00
C3       -0.04364   0.71314    0.25499   1.00
C3       0.04384    0.71319    0.24989   1.00
C3       -0.04123   0.78377    0.24869   1.00
C3       0.04114    0.78406    0.25178   1.00
C2       -0.10512   0.74972    0.25116   1.00
C2       0.10512    0.75028    0.24884   1.00
C3       -0.08462   0.71412    0.25444   1.00
C3       0.08481    0.71443    0.24914   1.00
C3       -0.08258   0.78421    0.24892   1.00
C3       0.08238    0.78470    0.24932   1.00
H1       -0.03115   0.68633    0.25791   1.00
H1       0.03148    0.68617    0.24924   1.00
C5       -0.02020   0.81930    0.24548   1.00
C5       0.02020    0.81962    0.25452   1.00
H1       -0.09955   0.68824    0.25652   1.00
H1       0.09990    0.68855    0.24859   1.00
H1       -0.09680   0.81047    0.24772   1.00
H1       0.09632    0.81100    0.24730   1.00
O3       -0.03961   0.85319    0.23594   1.00
O3       0.03901    0.85429    0.26294   1.00
Si1      -0.04247   0.86685    0.19037   1.00
Si1      0.04721    0.86553    0.30848   1.00
C6       -0.07538   0.90584    0.19745   1.00
C6       0.00402    0.88395    0.17648   1.00
C6       -0.06253   0.83078    0.15952   1.00
C6       0.03307    0.83183    0.34489   1.00
C6       0.09802    0.87189    0.30992   1.00
C6       0.02523    0.91120    0.31707   1.00
C6       -0.11194   0.89666    0.22339   1.00
H2       -0.05791   0.92636    0.21447   1.00
C6       -0.09147   0.92991    0.16194   1.00
H2       0.01642    0.89275    0.20446   1.00
C6       0.03366    0.85418    0.15860   1.00
C6       0.00664    0.92090    0.14976   1.00
H2       -0.08831   0.82155    0.17588   1.00
C6       -0.07772   0.84434    0.11858   1.00
C6       -0.03849   0.79277    0.15053   1.00
C6       -0.01071   0.81905    0.34648   1.00
C6       0.05775    0.79389    0.35130   1.00
H2       0.03788    0.84842    0.37165   1.00
H2       0.10949    0.84241    0.30628   1.00
C6       0.11622    0.89628    0.27582   1.00
C6       0.11607    0.88807    0.34858   1.00
H2       0.04625    0.93218    0.30553   1.00
C6       -0.01336   0.91959    0.29448   1.00
C6       0.01756    0.92358    0.36039   1.00
H2       -0.10346   0.88530    0.25194   1.00
H2       -0.13090   0.87514    0.20944   1.00
H2       -0.12917   0.92296    0.22877   1.00
H2       -0.09608   0.96029    0.17053   1.00
H2       -0.07178   0.92994    0.13708   1.00
H2       -0.11964   0.91903    0.15174   1.00
H2       0.06328    0.86607    0.15908   1.00
H2       0.03468    0.82702    0.17502   1.00
H2       0.02648    0.84755    0.12829   1.00
H2       -0.00862   0.94569    0.16265   1.00
H2       0.03692    0.93021    0.14578   1.00
H2       -0.00550   0.91507    0.12086   1.00
H2       -0.05514   0.86016    0.10260   1.00
H2       -0.08708   0.81973    0.10049   1.00
H2       -0.10332   0.86283    0.12130   1.00
H2       -0.01902   0.79651    0.12560   1.00
H2       -0.02068   0.78306    0.17477   1.00
H2       -0.05828   0.76874    0.14344   1.00
H2       -0.01688   0.79559    0.32594   1.00
H2       -0.01809   0.80815    0.37555   1.00
H2       -0.03048   0.84312    0.34031   1.00
H2       0.04875    0.77902    0.37808   1.00
H2       0.05426    0.77308    0.32759   1.00
H2       0.08878    0.80015    0.35460   1.00
H2       0.14798    0.89302    0.27551   1.00
H2       0.10565    0.88630    0.24744   1.00
H2       0.10965    0.92731    0.27852   1.00
H2       0.10584    0.87192    0.37404   1.00
H2       0.14788    0.88534    0.34801   1.00
H2       0.10915    0.91891    0.35265   1.00
H2       -0.03656   0.89932    0.30242   1.00
H2       -0.02381   0.94926    0.29965   1.00
H2       -0.00834   0.91686    0.26333   1.00
H2       0.00956    0.95443    0.36211   1.00
H2       -0.00622   0.90671    0.37330   1.00
H2       0.04343    0.91980    0.37850   1.00
C4       0.52084    0.74759    0.24814   1.00
C4       0.47912    0.74767    0.24887   1.00
C3       0.54364    0.71314    0.24501   1.00
C3       0.45616    0.71319    0.25011   1.00
C3       0.54123    0.78377    0.25131   1.00
C3       0.45886    0.78406    0.24822   1.00
C2       0.60512    0.74972    0.24884   1.00
C2       0.39488    0.75028    0.25116   1.00
C3       0.58462    0.71412    0.24556   1.00
C3       0.41519    0.71443    0.25086   1.00
C3       0.58258    0.78421    0.25108   1.00
C3       0.41762    0.78470    0.25068   1.00
H1       0.53115    0.68633    0.24209   1.00
H1       0.46852    0.68617    0.25076   1.00
C5       0.52020    0.81930    0.25452   1.00
C5       0.47980    0.81962    0.24548   1.00
H1       0.59955    0.68824    0.24348   1.00
H1       0.40010    0.68855    0.25141   1.00
H1       0.59680    0.81047    0.25228   1.00
H1       0.40368    0.81100    0.25270   1.00
O3       0.53961    0.85319    0.26406   1.00
O3       0.46099    0.85429    0.23706   1.00
Si1      0.54247    0.86685    0.30963   1.00
Si1      0.45279    0.86553    0.19152   1.00
C6       0.57538    0.90584    0.30255   1.00
C6       0.49598    0.88395    0.32352   1.00
C6       0.56253    0.83078    0.34048   1.00
C6       0.46693    0.83183    0.15511   1.00
C6       0.40198    0.87189    0.19008   1.00
C6       0.47477    0.91120    0.18293   1.00
C6       0.61194    0.89666    0.27661   1.00
H2       0.55791    0.92636    0.28553   1.00
C6       0.59147    0.92991    0.33806   1.00
H2       0.48358    0.89275    0.29554   1.00
C6       0.46634    0.85418    0.34140   1.00
C6       0.49336    0.92090    0.35024   1.00
H2       0.58831    0.82155    0.32412   1.00
C6       0.57772    0.84434    0.38142   1.00
C6       0.53849    0.79277    0.34947   1.00
C6       0.51071    0.81905    0.15352   1.00
C6       0.44225    0.79389    0.14870   1.00
H2       0.46212    0.84842    0.12835   1.00
H2       0.39051    0.84241    0.19372   1.00
C6       0.38378    0.89628    0.22418   1.00
C6       0.38393    0.88807    0.15142   1.00
H2       0.45375    0.93218    0.19447   1.00
C6       0.51336    0.91959    0.20552   1.00
C6       0.48244    0.92358    0.13961   1.00
H2       0.60346    0.88530    0.24806   1.00
H2       0.63090    0.87514    0.29056   1.00
H2       0.62917    0.92296    0.27123   1.00
H2       0.59608    0.96029    0.32947   1.00
H2       0.57178    0.92994    0.36292   1.00
H2       0.61964    0.91903    0.34826   1.00
H2       0.43672    0.86607    0.34092   1.00
H2       0.46532    0.82702    0.32498   1.00
H2       0.47352    0.84755    0.37171   1.00
H2       0.50862    0.94569    0.33735   1.00
H2       0.46308    0.93021    0.35422   1.00
H2       0.50550    0.91507    0.37914   1.00
H2       0.55514    0.86016    0.39740   1.00
H2       0.58708    0.81973    0.39951   1.00
H2       0.60332    0.86283    0.37870   1.00
H2       0.51902    0.79651    0.37440   1.00
H2       0.52068    0.78306    0.32523   1.00
H2       0.55828    0.76874    0.35656   1.00
H2       0.51688    0.79559    0.17406   1.00
H2       0.51809    0.80815    0.12445   1.00
H2       0.53048    0.84312    0.15969   1.00
H2       0.45125    0.77902    0.12192   1.00
H2       0.44574    0.77308    0.17241   1.00
H2       0.41122    0.80015    0.14540   1.00
H2       0.35202    0.89302    0.22449   1.00
H2       0.39435    0.88630    0.25256   1.00
H2       0.39035    0.92731    0.22148   1.00
H2       0.39416    0.87192    0.12596   1.00
H2       0.35212    0.88534    0.15199   1.00
H2       0.39085    0.91891    0.14735   1.00
H2       0.53656    0.89932    0.19758   1.00
H2       0.52381    0.94926    0.20035   1.00
H2       0.50834    0.91686    0.23667   1.00
H2       0.49044    0.95443    0.13789   1.00
H2       0.50622    0.90671    0.12670   1.00
H2       0.45657    0.91980    0.12150   1.00
C4       0.25186    0.47916    0.24759   1.00
C4       0.25113    0.52088    0.24767   1.00
C3       0.25499    0.45636    0.21314   1.00
C3       0.24989    0.54384    0.21319   1.00
C3       0.24869    0.45877    0.28377   1.00
C3       0.25178    0.54114    0.28406   1.00
C2       0.25116    0.39488    0.24972   1.00
C2       0.24884    0.60512    0.25028   1.00
C3       0.25444    0.41538    0.21412   1.00
C3       0.24914    0.58481    0.21443   1.00
C3       0.24892    0.41742    0.28421   1.00
C3       0.24932    0.58238    0.28470   1.00
H1       0.25791    0.46885    0.18633   1.00
H1       0.24924    0.53148    0.18617   1.00
C5       0.24548    0.47980    0.31930   1.00
C5       0.25452    0.52020    0.31962   1.00
H1       0.25652    0.40045    0.18824   1.00
H1       0.24859    0.59990    0.18855   1.00
H1       0.24772    0.40320    0.31047   1.00
H1       0.24730    0.59632    0.31100   1.00
O3       0.23594    0.46039    0.35319   1.00
O3       0.26294    0.53901    0.35429   1.00
Si1      0.19037    0.45753    0.36685   1.00
Si1      0.30848    0.54721    0.36553   1.00
C6       0.19745    0.42462    0.40584   1.00
C6       0.17648    0.50402    0.38395   1.00
C6       0.15952    0.43747    0.33078   1.00
C6       0.34489    0.53307    0.33183   1.00
C6       0.30992    0.59802    0.37189   1.00
C6       0.31707    0.52523    0.41120   1.00
C6       0.22339    0.38806    0.39666   1.00
H2       0.21447    0.44209    0.42636   1.00
C6       0.16194    0.40853    0.42991   1.00
H2       0.20446    0.51642    0.39275   1.00
C6       0.15860    0.53366    0.35418   1.00
C6       0.14976    0.50664    0.42090   1.00
H2       0.17588    0.41169    0.32155   1.00
C6       0.11858    0.42228    0.34434   1.00
C6       0.15053    0.46151    0.29277   1.00
C6       0.34648    0.48929    0.31905   1.00
C6       0.35130    0.55775    0.29389   1.00
H2       0.37165    0.53788    0.34842   1.00
H2       0.30628    0.60949    0.34241   1.00
C6       0.27582    0.61622    0.39628   1.00
C6       0.34858    0.61607    0.38807   1.00
H2       0.30553    0.54625    0.43218   1.00
C6       0.29448    0.48664    0.41959   1.00
C6       0.36039    0.51756    0.42358   1.00
H2       0.25194    0.39654    0.38530   1.00
H2       0.20944    0.36910    0.37514   1.00
H2       0.22877    0.37083    0.42296   1.00
H2       0.17053    0.40392    0.46029   1.00
H2       0.13708    0.42822    0.42994   1.00
H2       0.15174    0.38036    0.41903   1.00
H2       0.15908    0.56328    0.36607   1.00
H2       0.17502    0.53468    0.32702   1.00
H2       0.12829    0.52648    0.34755   1.00
H2       0.16265    0.49138    0.44569   1.00
H2       0.14578    0.53692    0.43021   1.00
H2       0.12086    0.49450    0.41507   1.00
H2       0.10260    0.44486    0.36016   1.00
H2       0.10049    0.41292    0.31973   1.00
H2       0.12130    0.39668    0.36283   1.00
H2       0.12560    0.48098    0.29651   1.00
H2       0.17477    0.47932    0.28306   1.00
H2       0.14344    0.44172    0.26874   1.00
H2       0.32594    0.48312    0.29559   1.00
H2       0.37555    0.48191    0.30815   1.00
H2       0.34031    0.46952    0.34312   1.00
H2       0.37808    0.54875    0.27902   1.00
H2       0.32759    0.55426    0.27308   1.00
H2       0.35460    0.58878    0.30015   1.00
H2       0.27551    0.64798    0.39302   1.00
H2       0.24744    0.60565    0.38630   1.00
H2       0.27852    0.60965    0.42731   1.00
H2       0.37404    0.60584    0.37192   1.00
H2       0.34801    0.64788    0.38534   1.00
H2       0.35265    0.60915    0.41891   1.00
H2       0.30242    0.46344    0.39932   1.00
H2       0.29965    0.47619    0.44926   1.00
H2       0.26333    0.49166    0.41686   1.00
H2       0.36211    0.50956    0.45443   1.00
H2       0.37330    0.49378    0.40671   1.00
H2       0.37850    0.54343    0.41980   1.00
C4       0.24759    0.75186    -0.02084   1.00
C4       0.24767    0.75113    0.02088   1.00
C3       0.21314    0.75499    -0.04364   1.00
C3       0.21319    0.74989    0.04384   1.00
C3       0.28377    0.74869    -0.04123   1.00
C3       0.28406    0.75178    0.04114   1.00
C2       0.24972    0.75116    -0.10512   1.00
C2       0.25028    0.74884    0.10512   1.00
C3       0.21412    0.75444    -0.08462   1.00
C3       0.21443    0.74914    0.08481   1.00
C3       0.28421    0.74892    -0.08258   1.00
C3       0.28470    0.74932    0.08238   1.00
H1       0.18633    0.75791    -0.03115   1.00
H1       0.18617    0.74924    0.03148   1.00
C5       0.31930    0.74548    -0.02020   1.00
C5       0.31962    0.75452    0.02020   1.00
H1       0.18824    0.75652    -0.09955   1.00
H1       0.18855    0.74859    0.09990   1.00
H1       0.31047    0.74772    -0.09680   1.00
H1       0.31100    0.74730    0.09632   1.00
O3       0.35319    0.73594    -0.03961   1.00
O3       0.35429    0.76294    0.03901   1.00
Si1      0.36685    0.69037    -0.04247   1.00
Si1      0.36553    0.80848    0.04721   1.00
C6       0.40584    0.69745    -0.07538   1.00
C6       0.38395    0.67648    0.00402   1.00
C6       0.33078    0.65952    -0.06253   1.00
C6       0.33183    0.84489    0.03307   1.00
C6       0.37189    0.80992    0.09802   1.00
C6       0.41120    0.81707    0.02523   1.00
C6       0.39666    0.72339    -0.11194   1.00
H2       0.42636    0.71447    -0.05791   1.00
C6       0.42991    0.66194    -0.09147   1.00
H2       0.39275    0.70446    0.01642   1.00
C6       0.35418    0.65860    0.03366   1.00
C6       0.42090    0.64976    0.00664   1.00
H2       0.32155    0.67588    -0.08831   1.00
C6       0.34434    0.61858    -0.07772   1.00
C6       0.29277    0.65053    -0.03849   1.00
C6       0.31905    0.84648    -0.01071   1.00
C6       0.29389    0.85130    0.05775   1.00
H2       0.34842    0.87165    0.03788   1.00
H2       0.34241    0.80628    0.10949   1.00
C6       0.39628    0.77582    0.11622   1.00
C6       0.38807    0.84858    0.11607   1.00
H2       0.43218    0.80553    0.04625   1.00
C6       0.41959    0.79448    -0.01336   1.00
C6       0.42358    0.86039    0.01756   1.00
H2       0.38530    0.75194    -0.10346   1.00
H2       0.37514    0.70944    -0.13090   1.00
H2       0.42296    0.72877    -0.12917   1.00
H2       0.46029    0.67053    -0.09608   1.00
H2       0.42994    0.63708    -0.07178   1.00
H2       0.41903    0.65174    -0.11964   1.00
H2       0.36607    0.65908    0.06328   1.00
H2       0.32702    0.67502    0.03468   1.00
H2       0.34755    0.62829    0.02648   1.00
H2       0.44569    0.66265    -0.00862   1.00
H2       0.43021    0.64578    0.03692   1.00
H2       0.41507    0.62086    -0.00550   1.00
H2       0.36016    0.60260    -0.05514   1.00
H2       0.31973    0.60049    -0.08708   1.00
H2       0.36283    0.62130    -0.10332   1.00
H2       0.29651    0.62560    -0.01902   1.00
H2       0.28306    0.67477    -0.02068   1.00
H2       0.26874    0.64344    -0.05828   1.00
H2       0.29559    0.82594    -0.01688   1.00
H2       0.30815    0.87555    -0.01809   1.00
H2       0.34312    0.84031    -0.03048   1.00
H2       0.27902    0.87808    0.04875   1.00
H2       0.27308    0.82759    0.05426   1.00
H2       0.30015    0.85460    0.08878   1.00
H2       0.39302    0.77551    0.14798   1.00
H2       0.38630    0.74744    0.10565   1.00
H2       0.42731    0.77852    0.10965   1.00
H2       0.37192    0.87404    0.10584   1.00
H2       0.38534    0.84801    0.14788   1.00
H2       0.41891    0.85265    0.10915   1.00
H2       0.39932    0.80242    -0.03656   1.00
H2       0.44926    0.79965    -0.02381   1.00
H2       0.41686    0.76333    -0.00834   1.00
H2       0.45443    0.86211    0.00956   1.00
H2       0.40671    0.87330    -0.00622   1.00
H2       0.41980    0.87850    0.04343   1.00
C4       0.74759    0.24814    0.52084   1.00
C4       0.74767    0.24887    0.47912   1.00
C3       0.71314    0.24501    0.54364   1.00
C3       0.71319    0.25011    0.45616   1.00
C3       0.78377    0.25131    0.54123   1.00
C3       0.78406    0.24822    0.45886   1.00
C2       0.74972    0.24884    0.60512   1.00
C2       0.75028    0.25116    0.39488   1.00
C3       0.71412    0.24556    0.58462   1.00
C3       0.71443    0.25086    0.41519   1.00
C3       0.78421    0.25108    0.58258   1.00
C3       0.78470    0.25068    0.41762   1.00
H1       0.68633    0.24209    0.53115   1.00
H1       0.68617    0.25076    0.46852   1.00
C5       0.81930    0.25452    0.52020   1.00
C5       0.81962    0.24548    0.47980   1.00
H1       0.68824    0.24348    0.59955   1.00
H1       0.68855    0.25141    0.40010   1.00
H1       0.81047    0.25228    0.59680   1.00
H1       0.81100    0.25270    0.40368   1.00
O3       0.85319    0.26406    0.53961   1.00
O3       0.85429    0.23706    0.46099   1.00
Si1      0.86685    0.30963    0.54247   1.00
Si1      0.86553    0.19152    0.45279   1.00
C6       0.90584    0.30255    0.57538   1.00
C6       0.88395    0.32352    0.49598   1.00
C6       0.83078    0.34048    0.56253   1.00
C6       0.83183    0.15511    0.46693   1.00
C6       0.87189    0.19008    0.40198   1.00
C6       0.91120    0.18293    0.47477   1.00
C6       0.89666    0.27661    0.61194   1.00
H2       0.92636    0.28553    0.55791   1.00
C6       0.92991    0.33806    0.59147   1.00
H2       0.89275    0.29554    0.48358   1.00
C6       0.85418    0.34140    0.46634   1.00
C6       0.92090    0.35024    0.49336   1.00
H2       0.82155    0.32412    0.58831   1.00
C6       0.84434    0.38142    0.57772   1.00
C6       0.79277    0.34947    0.53849   1.00
C6       0.81905    0.15352    0.51071   1.00
C6       0.79389    0.14870    0.44225   1.00
H2       0.84842    0.12835    0.46212   1.00
H2       0.84241    0.19372    0.39051   1.00
C6       0.89628    0.22418    0.38378   1.00
C6       0.88807    0.15142    0.38393   1.00
H2       0.93218    0.19447    0.45375   1.00
C6       0.91959    0.20552    0.51336   1.00
C6       0.92358    0.13961    0.48244   1.00
H2       0.88530    0.24806    0.60346   1.00
H2       0.87514    0.29056    0.63090   1.00
H2       0.92296    0.27123    0.62917   1.00
H2       0.96029    0.32947    0.59608   1.00
H2       0.92994    0.36292    0.57178   1.00
H2       0.91903    0.34826    0.61964   1.00
H2       0.86607    0.34092    0.43672   1.00
H2       0.82702    0.32498    0.46532   1.00
H2       0.84755    0.37171    0.47352   1.00
H2       0.94569    0.33735    0.50862   1.00
H2       0.93021    0.35422    0.46308   1.00
H2       0.91507    0.37914    0.50550   1.00
H2       0.86016    0.39740    0.55514   1.00
H2       0.81973    0.39951    0.58708   1.00
H2       0.86283    0.37870    0.60332   1.00
H2       0.79651    0.37440    0.51902   1.00
H2       0.78306    0.32523    0.52068   1.00
H2       0.76874    0.35656    0.55828   1.00
H2       0.79559    0.17406    0.51688   1.00
H2       0.80815    0.12445    0.51809   1.00
H2       0.84312    0.15969    0.53048   1.00
H2       0.77902    0.12192    0.45125   1.00
H2       0.77308    0.17241    0.44574   1.00
H2       0.80015    0.14540    0.41122   1.00
H2       0.89302    0.22449    0.35202   1.00
H2       0.88630    0.25256    0.39435   1.00
H2       0.92731    0.22148    0.39035   1.00
H2       0.87192    0.12596    0.39416   1.00
H2       0.88534    0.15199    0.35212   1.00
H2       0.91891    0.14735    0.39085   1.00
H2       0.89932    0.19758    0.53656   1.00
H2       0.94926    0.20035    0.52381   1.00
H2       0.91686    0.23667    0.50834   1.00
H2       0.95443    0.13789    0.49044   1.00
H2       0.90671    0.12670    0.50622   1.00
H2       0.91980    0.12150    0.45657   1.00
C4       0.74814    0.52084    0.24759   1.00
C4       0.74887    0.47912    0.24767   1.00
C3       0.74501    0.54364    0.21314   1.00
C3       0.75011    0.45616    0.21319   1.00
C3       0.75131    0.54123    0.28377   1.00
C3       0.74822    0.45886    0.28406   1.00
C2       0.74884    0.60512    0.24972   1.00
C2       0.75116    0.39488    0.25028   1.00
C3       0.74556    0.58462    0.21412   1.00
C3       0.75086    0.41519    0.21443   1.00
C3       0.75108    0.58258    0.28421   1.00
C3       0.75068    0.41762    0.28470   1.00
H1       0.74209    0.53115    0.18633   1.00
H1       0.75076    0.46852    0.18617   1.00
C5       0.75452    0.52020    0.31930   1.00
C5       0.74548    0.47980    0.31962   1.00
H1       0.74348    0.59955    0.18824   1.00
H1       0.75141    0.40010    0.18855   1.00
H1       0.75228    0.59680    0.31047   1.00
H1       0.75270    0.40368    0.31100   1.00
O3       0.76406    0.53961    0.35319   1.00
O3       0.73706    0.46099    0.35429   1.00
Si1      0.80963    0.54247    0.36685   1.00
Si1      0.69152    0.45279    0.36553   1.00
C6       0.80255    0.57538    0.40584   1.00
C6       0.82352    0.49598    0.38395   1.00
C6       0.84048    0.56253    0.33078   1.00
C6       0.65511    0.46693    0.33183   1.00
C6       0.69008    0.40198    0.37189   1.00
C6       0.68293    0.47477    0.41120   1.00
C6       0.77661    0.61194    0.39666   1.00
H2       0.78553    0.55791    0.42636   1.00
C6       0.83806    0.59147    0.42991   1.00
H2       0.79554    0.48358    0.39275   1.00
C6       0.84140    0.46634    0.35418   1.00
C6       0.85024    0.49336    0.42090   1.00
H2       0.82412    0.58831    0.32155   1.00
C6       0.88142    0.57772    0.34434   1.00
C6       0.84947    0.53849    0.29277   1.00
C6       0.65352    0.51071    0.31905   1.00
C6       0.64870    0.44225    0.29389   1.00
H2       0.62835    0.46212    0.34842   1.00
H2       0.69372    0.39051    0.34241   1.00
C6       0.72418    0.38378    0.39628   1.00
C6       0.65142    0.38393    0.38807   1.00
H2       0.69447    0.45375    0.43218   1.00
C6       0.70552    0.51336    0.41959   1.00
C6       0.63961    0.48244    0.42358   1.00
H2       0.74806    0.60346    0.38530   1.00
H2       0.79056    0.63090    0.37514   1.00
H2       0.77123    0.62917    0.42296   1.00
H2       0.82947    0.59608    0.46029   1.00
H2       0.86292    0.57178    0.42994   1.00
H2       0.84826    0.61964    0.41903   1.00
H2       0.84092    0.43672    0.36607   1.00
H2       0.82498    0.46532    0.32702   1.00
H2       0.87171    0.47352    0.34755   1.00
H2       0.83735    0.50862    0.44569   1.00
H2       0.85422    0.46308    0.43021   1.00
H2       0.87914    0.50550    0.41507   1.00
H2       0.89740    0.55514    0.36016   1.00
H2       0.89951    0.58708    0.31973   1.00
H2       0.87870    0.60332    0.36283   1.00
H2       0.87440    0.51902    0.29651   1.00
H2       0.82523    0.52068    0.28306   1.00
H2       0.85656    0.55828    0.26874   1.00
H2       0.67406    0.51688    0.29559   1.00
H2       0.62445    0.51809    0.30815   1.00
H2       0.65969    0.53048    0.34312   1.00
H2       0.62192    0.45125    0.27902   1.00
H2       0.67241    0.44574    0.27308   1.00
H2       0.64540    0.41122    0.30015   1.00
H2       0.72449    0.35202    0.39302   1.00
H2       0.75256    0.39435    0.38630   1.00
H2       0.72148    0.39035    0.42731   1.00
H2       0.62596    0.39416    0.37192   1.00
H2       0.65199    0.35212    0.38534   1.00
H2       0.64735    0.39085    0.41891   1.00
H2       0.69758    0.53656    0.39932   1.00
H2       0.70035    0.52381    0.44926   1.00
H2       0.73667    0.50834    0.41686   1.00
H2       0.63789    0.49044    0.45443   1.00
H2       0.62670    0.50622    0.40671   1.00
H2       0.62150    0.45657    0.41980   1.00
C4       0.47916    0.24759    0.25186   1.00
C4       0.52088    0.24767    0.25113   1.00
C3       0.45636    0.21314    0.25499   1.00
C3       0.54384    0.21319    0.24989   1.00
C3       0.45877    0.28377    0.24869   1.00
C3       0.54114    0.28406    0.25178   1.00
C2       0.39488    0.24972    0.25116   1.00
C2       0.60512    0.25028    0.24884   1.00
C3       0.41538    0.21412    0.25444   1.00
C3       0.58481    0.21443    0.24914   1.00
C3       0.41742    0.28421    0.24892   1.00
C3       0.58238    0.28470    0.24932   1.00
H1       0.46885    0.18633    0.25791   1.00
H1       0.53148    0.18617    0.24924   1.00
C5       0.47980    0.31930    0.24548   1.00
C5       0.52020    0.31962    0.25452   1.00
H1       0.40045    0.18824    0.25652   1.00
H1       0.59990    0.18855    0.24859   1.00
H1       0.40320    0.31047    0.24772   1.00
H1       0.59632    0.31100    0.24730   1.00
O3       0.46039    0.35319    0.23594   1.00
O3       0.53901    0.35429    0.26294   1.00
Si1      0.45753    0.36685    0.19037   1.00
Si1      0.54721    0.36553    0.30848   1.00
C6       0.42462    0.40584    0.19745   1.00
C6       0.50402    0.38395    0.17648   1.00
C6       0.43747    0.33078    0.15952   1.00
C6       0.53307    0.33183    0.34489   1.00
C6       0.59802    0.37189    0.30992   1.00
C6       0.52523    0.41120    0.31707   1.00
C6       0.38806    0.39666    0.22339   1.00
H2       0.44209    0.42636    0.21447   1.00
C6       0.40853    0.42991    0.16194   1.00
H2       0.51642    0.39275    0.20446   1.00
C6       0.53366    0.35418    0.15860   1.00
C6       0.50664    0.42090    0.14976   1.00
H2       0.41169    0.32155    0.17588   1.00
C6       0.42228    0.34434    0.11858   1.00
C6       0.46151    0.29277    0.15053   1.00
C6       0.48929    0.31905    0.34648   1.00
C6       0.55775    0.29389    0.35130   1.00
H2       0.53788    0.34842    0.37165   1.00
H2       0.60949    0.34241    0.30628   1.00
C6       0.61622    0.39628    0.27582   1.00
C6       0.61607    0.38807    0.34858   1.00
H2       0.54625    0.43218    0.30553   1.00
C6       0.48664    0.41959    0.29448   1.00
C6       0.51756    0.42358    0.36039   1.00
H2       0.39654    0.38530    0.25194   1.00
H2       0.36910    0.37514    0.20944   1.00
H2       0.37083    0.42296    0.22877   1.00
H2       0.40392    0.46029    0.17053   1.00
H2       0.42822    0.42994    0.13708   1.00
H2       0.38036    0.41903    0.15174   1.00
H2       0.56328    0.36607    0.15908   1.00
H2       0.53468    0.32702    0.17502   1.00
H2       0.52648    0.34755    0.12829   1.00
H2       0.49138    0.44569    0.16265   1.00
H2       0.53692    0.43021    0.14578   1.00
H2       0.49450    0.41507    0.12086   1.00
H2       0.44486    0.36016    0.10260   1.00
H2       0.41292    0.31973    0.10049   1.00
H2       0.39668    0.36283    0.12130   1.00
H2       0.48098    0.29651    0.12560   1.00
H2       0.47932    0.28306    0.17477   1.00
H2       0.44172    0.26874    0.14344   1.00
H2       0.48312    0.29559    0.32594   1.00
H2       0.48191    0.30815    0.37555   1.00
H2       0.46952    0.34312    0.34031   1.00
H2       0.54875    0.27902    0.37808   1.00
H2       0.55426    0.27308    0.32759   1.00
H2       0.58878    0.30015    0.35460   1.00
H2       0.64798    0.39302    0.27551   1.00
H2       0.60565    0.38630    0.24744   1.00
H2       0.60965    0.42731    0.27852   1.00
H2       0.60584    0.37192    0.37404   1.00
H2       0.64788    0.38534    0.34801   1.00
H2       0.60915    0.41891    0.35265   1.00
H2       0.46344    0.39932    0.30242   1.00
H2       0.47619    0.44926    0.29965   1.00
H2       0.49166    0.41686    0.26333   1.00
H2       0.50956    0.45443    0.36211   1.00
H2       0.49378    0.40671    0.37330   1.00
H2       0.54343    0.41980    0.37850   1.00
C4       1.02084    0.24759    0.24814   1.00
C4       0.97912    0.24767    0.24887   1.00
C3       1.04364    0.21314    0.24501   1.00
C3       0.95616    0.21319    0.25011   1.00
C3       1.04123    0.28377    0.25131   1.00
C3       0.95886    0.28406    0.24822   1.00
C2       1.10512    0.24972    0.24884   1.00
C2       0.89488    0.25028    0.25116   1.00
C3       1.08462    0.21412    0.24556   1.00
C3       0.91519    0.21443    0.25086   1.00
C3       1.08258    0.28421    0.25108   1.00
C3       0.91762    0.28470    0.25068   1.00
H1       1.03115    0.18633    0.24209   1.00
H1       0.96852    0.18617    0.25076   1.00
C5       1.02020    0.31930    0.25452   1.00
C5       0.97980    0.31962    0.24548   1.00
H1       1.09955    0.18824    0.24348   1.00
H1       0.90010    0.18855    0.25141   1.00
H1       1.09680    0.31047    0.25228   1.00
H1       0.90368    0.31100    0.25270   1.00
O3       1.03961    0.35319    0.26406   1.00
O3       0.96099    0.35429    0.23706   1.00
Si1      1.04247    0.36685    0.30963   1.00
Si1      0.95279    0.36553    0.19152   1.00
C6       1.07538    0.40584    0.30255   1.00
C6       0.99598    0.38395    0.32352   1.00
C6       1.06253    0.33078    0.34048   1.00
C6       0.96693    0.33183    0.15511   1.00
C6       0.90198    0.37189    0.19008   1.00
C6       0.97477    0.41120    0.18293   1.00
C6       1.11194    0.39666    0.27661   1.00
H2       1.05791    0.42636    0.28553   1.00
C6       1.09147    0.42991    0.33806   1.00
H2       0.98358    0.39275    0.29554   1.00
C6       0.96634    0.35418    0.34140   1.00
C6       0.99336    0.42090    0.35024   1.00
H2       1.08831    0.32155    0.32412   1.00
C6       1.07772    0.34434    0.38142   1.00
C6       1.03849    0.29277    0.34947   1.00
C6       1.01071    0.31905    0.15352   1.00
C6       0.94225    0.29389    0.14870   1.00
H2       0.96212    0.34842    0.12835   1.00
H2       0.89051    0.34241    0.19372   1.00
C6       0.88378    0.39628    0.22418   1.00
C6       0.88393    0.38807    0.15142   1.00
H2       0.95375    0.43218    0.19447   1.00
C6       1.01336    0.41959    0.20552   1.00
C6       0.98244    0.42358    0.13961   1.00
H2       1.10346    0.38530    0.24806   1.00
H2       1.13090    0.37514    0.29056   1.00
H2       1.12917    0.42296    0.27123   1.00
H2       1.09608    0.46029    0.32947   1.00
H2       1.07178    0.42994    0.36292   1.00
H2       1.11964    0.41903    0.34826   1.00
H2       0.93672    0.36607    0.34092   1.00
H2       0.96532    0.32702    0.32498   1.00
H2       0.97352    0.34755    0.37171   1.00
H2       1.00862    0.44569    0.33735   1.00
H2       0.96308    0.43021    0.35422   1.00
H2       1.00550    0.41507    0.37914   1.00
H2       1.05514    0.36016    0.39740   1.00
H2       1.08708    0.31973    0.39951   1.00
H2       1.10332    0.36283    0.37870   1.00
H2       1.01902    0.29651    0.37440   1.00
H2       1.02068    0.28306    0.32523   1.00
H2       1.05828    0.26874    0.35656   1.00
H2       1.01688    0.29559    0.17406   1.00
H2       1.01809    0.30815    0.12445   1.00
H2       1.03048    0.34312    0.15969   1.00
H2       0.95125    0.27902    0.12192   1.00
H2       0.94574    0.27308    0.17241   1.00
H2       0.91122    0.30015    0.14540   1.00
H2       0.85202    0.39302    0.22449   1.00
H2       0.89435    0.38630    0.25256   1.00
H2       0.89035    0.42731    0.22148   1.00
H2       0.89416    0.37192    0.12596   1.00
H2       0.85212    0.38534    0.15199   1.00
H2       0.89085    0.41891    0.14735   1.00
H2       1.03656    0.39932    0.19758   1.00
H2       1.02381    0.44926    0.20035   1.00
H2       1.00834    0.41686    0.23667   1.00
H2       0.99044    0.45443    0.13789   1.00
H2       1.00622    0.40671    0.12670   1.00
H2       0.95657    0.41980    0.12150   1.00
C4       0.75186    -0.02084   0.24759   1.00
C4       0.75113    0.02088    0.24767   1.00
C3       0.75499    -0.04364   0.21314   1.00
C3       0.74989    0.04384    0.21319   1.00
C3       0.74869    -0.04123   0.28377   1.00
C3       0.75178    0.04114    0.28406   1.00
C2       0.75116    -0.10512   0.24972   1.00
C2       0.74884    0.10512    0.25028   1.00
C3       0.75444    -0.08462   0.21412   1.00
C3       0.74914    0.08481    0.21443   1.00
C3       0.74892    -0.08258   0.28421   1.00
C3       0.74932    0.08238    0.28470   1.00
H1       0.75791    -0.03115   0.18633   1.00
H1       0.74924    0.03148    0.18617   1.00
C5       0.74548    -0.02020   0.31930   1.00
C5       0.75452    0.02020    0.31962   1.00
H1       0.75652    -0.09955   0.18824   1.00
H1       0.74859    0.09990    0.18855   1.00
H1       0.74772    -0.09680   0.31047   1.00
H1       0.74730    0.09632    0.31100   1.00
O3       0.73594    -0.03961   0.35319   1.00
O3       0.76294    0.03901    0.35429   1.00
Si1      0.69037    -0.04247   0.36685   1.00
Si1      0.80848    0.04721    0.36553   1.00
C6       0.69745    -0.07538   0.40584   1.00
C6       0.67648    0.00402    0.38395   1.00
C6       0.65952    -0.06253   0.33078   1.00
C6       0.84489    0.03307    0.33183   1.00
C6       0.80992    0.09802    0.37189   1.00
C6       0.81707    0.02523    0.41120   1.00
C6       0.72339    -0.11194   0.39666   1.00
H2       0.71447    -0.05791   0.42636   1.00
C6       0.66194    -0.09147   0.42991   1.00
H2       0.70446    0.01642    0.39275   1.00
C6       0.65860    0.03366    0.35418   1.00
C6       0.64976    0.00664    0.42090   1.00
H2       0.67588    -0.08831   0.32155   1.00
C6       0.61858    -0.07772   0.34434   1.00
C6       0.65053    -0.03849   0.29277   1.00
C6       0.84648    -0.01071   0.31905   1.00
C6       0.85130    0.05775    0.29389   1.00
H2       0.87165    0.03788    0.34842   1.00
H2       0.80628    0.10949    0.34241   1.00
C6       0.77582    0.11622    0.39628   1.00
C6       0.84858    0.11607    0.38807   1.00
H2       0.80553    0.04625    0.43218   1.00
C6       0.79448    -0.01336   0.41959   1.00
C6       0.86039    0.01756    0.42358   1.00
H2       0.75194    -0.10346   0.38530   1.00
H2       0.70944    -0.13090   0.37514   1.00
H2       0.72877    -0.12917   0.42296   1.00
H2       0.67053    -0.09608   0.46029   1.00
H2       0.63708    -0.07178   0.42994   1.00
H2       0.65174    -0.11964   0.41903   1.00
H2       0.65908    0.06328    0.36607   1.00
H2       0.67502    0.03468    0.32702   1.00
H2       0.62829    0.02648    0.34755   1.00
H2       0.66265    -0.00862   0.44569   1.00
H2       0.64578    0.03692    0.43021   1.00
H2       0.62086    -0.00550   0.41507   1.00
H2       0.60260    -0.05514   0.36016   1.00
H2       0.60049    -0.08708   0.31973   1.00
H2       0.62130    -0.10332   0.36283   1.00
H2       0.62560    -0.01902   0.29651   1.00
H2       0.67477    -0.02068   0.28306   1.00
H2       0.64344    -0.05828   0.26874   1.00
H2       0.82594    -0.01688   0.29559   1.00
H2       0.87555    -0.01809   0.30815   1.00
H2       0.84031    -0.03048   0.34312   1.00
H2       0.87808    0.04875    0.27902   1.00
H2       0.82759    0.05426    0.27308   1.00
H2       0.85460    0.08878    0.30015   1.00
H2       0.77551    0.14798    0.39302   1.00
H2       0.74744    0.10565    0.38630   1.00
H2       0.77852    0.10965    0.42731   1.00
H2       0.87404    0.10584    0.37192   1.00
H2       0.84801    0.14788    0.38534   1.00
H2       0.85265    0.10915    0.41891   1.00
H2       0.80242    -0.03656   0.39932   1.00
H2       0.79965    -0.02381   0.44926   1.00
H2       0.76333    -0.00834   0.41686   1.00
H2       0.86211    0.00956    0.45443   1.00
H2       0.87330    -0.00622   0.40671   1.00
H2       0.87850    0.04343    0.41980   1.00
C4       0.74759    0.25186    -0.02084   1.00
C4       0.74767    0.25113    0.02088   1.00
C3       0.71314    0.25499    -0.04364   1.00
C3       0.71319    0.24989    0.04384   1.00
C3       0.78377    0.24869    -0.04123   1.00
C3       0.78406    0.25178    0.04114   1.00
C2       0.74972    0.25116    -0.10512   1.00
C2       0.75028    0.24884    0.10512   1.00
C3       0.71412    0.25444    -0.08462   1.00
C3       0.71443    0.24914    0.08481   1.00
C3       0.78421    0.24892    -0.08258   1.00
C3       0.78470    0.24932    0.08238   1.00
H1       0.68633    0.25791    -0.03115   1.00
H1       0.68617    0.24924    0.03148   1.00
C5       0.81930    0.24548    -0.02020   1.00
C5       0.81962    0.25452    0.02020   1.00
H1       0.68824    0.25652    -0.09955   1.00
H1       0.68855    0.24859    0.09990   1.00
H1       0.81047    0.24772    -0.09680   1.00
H1       0.81100    0.24730    0.09632   1.00
O3       0.85319    0.23594    -0.03961   1.00
O3       0.85429    0.26294    0.03901   1.00
Si1      0.86685    0.19037    -0.04247   1.00
Si1      0.86553    0.30848    0.04721   1.00
C6       0.90584    0.19745    -0.07538   1.00
C6       0.88395    0.17648    0.00402   1.00
C6       0.83078    0.15952    -0.06253   1.00
C6       0.83183    0.34489    0.03307   1.00
C6       0.87189    0.30992    0.09802   1.00
C6       0.91120    0.31707    0.02523   1.00
C6       0.89666    0.22339    -0.11194   1.00
H2       0.92636    0.21447    -0.05791   1.00
C6       0.92991    0.16194    -0.09147   1.00
H2       0.89275    0.20446    0.01642   1.00
C6       0.85418    0.15860    0.03366   1.00
C6       0.92090    0.14976    0.00664   1.00
H2       0.82155    0.17588    -0.08831   1.00
C6       0.84434    0.11858    -0.07772   1.00
C6       0.79277    0.15053    -0.03849   1.00
C6       0.81905    0.34648    -0.01071   1.00
C6       0.79389    0.35130    0.05775   1.00
H2       0.84842    0.37165    0.03788   1.00
H2       0.84241    0.30628    0.10949   1.00
C6       0.89628    0.27582    0.11622   1.00
C6       0.88807    0.34858    0.11607   1.00
H2       0.93218    0.30553    0.04625   1.00
C6       0.91959    0.29448    -0.01336   1.00
C6       0.92358    0.36039    0.01756   1.00
H2       0.88530    0.25194    -0.10346   1.00
H2       0.87514    0.20944    -0.13090   1.00
H2       0.92296    0.22877    -0.12917   1.00
H2       0.96029    0.17053    -0.09608   1.00
H2       0.92994    0.13708    -0.07178   1.00
H2       0.91903    0.15174    -0.11964   1.00
H2       0.86607    0.15908    0.06328   1.00
H2       0.82702    0.17502    0.03468   1.00
H2       0.84755    0.12829    0.02648   1.00
H2       0.94569    0.16265    -0.00862   1.00
H2       0.93021    0.14578    0.03692   1.00
H2       0.91507    0.12086    -0.00550   1.00
H2       0.86016    0.10260    -0.05514   1.00
H2       0.81973    0.10049    -0.08708   1.00
H2       0.86283    0.12130    -0.10332   1.00
H2       0.79651    0.12560    -0.01902   1.00
H2       0.78306    0.17477    -0.02068   1.00
H2       0.76874    0.14344    -0.05828   1.00
H2       0.79559    0.32594    -0.01688   1.00
H2       0.80815    0.37555    -0.01809   1.00
H2       0.84312    0.34031    -0.03048   1.00
H2       0.77902    0.37808    0.04875   1.00
H2       0.77308    0.32759    0.05426   1.00
H2       0.80015    0.35460    0.08878   1.00
H2       0.89302    0.27551    0.14798   1.00
H2       0.88630    0.24744    0.10565   1.00
H2       0.92731    0.27852    0.10965   1.00
H2       0.87192    0.37404    0.10584   1.00
H2       0.88534    0.34801    0.14788   1.00
H2       0.91891    0.35265    0.10915   1.00
H2       0.89932    0.30242    -0.03656   1.00
H2       0.94926    0.29965    -0.02381   1.00
H2       0.91686    0.26333    -0.00834   1.00
H2       0.95443    0.36211    0.00956   1.00
H2       0.90671    0.37330    -0.00622   1.00
H2       0.91980    0.37850    0.04343   1.00
