data_IRMOF10_SG202_Ligand8_label_q.

_audit_creation_method             'generated by an auxiliary program of Tobunporous'

_symmetry_space_group_name_H-M     'P 1'
_symmetry_Int_Tables_number        1
_symmetry_cell_setting             triclinic

_cell_length_a                    34.2800
_cell_length_b                    34.2800
_cell_length_c                    34.2800
_cell_angle_alpha                 90.0000
_cell_angle_beta                  90.0000
_cell_angle_gamma                 90.0000

loop_
_atom_site_label
_atom_site_fract_x
_atom_site_fract_y
_atom_site_fract_z
_atom_site_occupancy
O1       0.75000    0.75000    0.75000   1.00
Zn1      0.71720    0.78280    0.78280   1.00
Zn1      0.78280    0.71720    0.78280   1.00
Zn1      0.78280    0.78280    0.71720   1.00
Zn1      0.71720    0.71720    0.71720   1.00
O2       0.72650    0.77350    0.83820   1.00
O2       0.72650    0.83820    0.77350   1.00
O2       0.66180    0.77350    0.77350   1.00
O2       0.77350    0.72650    0.83820   1.00
O2       0.83820    0.72650    0.77350   1.00
O2       0.77350    0.66180    0.77350   1.00
O2       0.77350    0.83820    0.72650   1.00
O2       0.83820    0.77350    0.72650   1.00
O2       0.77350    0.77350    0.66180   1.00
O2       0.66180    0.72650    0.72650   1.00
O2       0.72650    0.66180    0.72650   1.00
O2       0.72650    0.72650    0.66180   1.00
C1       0.75000    0.75000    0.85520   1.00
C1       0.75000    0.85520    0.75000   1.00
C1       0.64480    0.75000    0.75000   1.00
C1       0.85520    0.75000    0.75000   1.00
C1       0.75000    0.64480    0.75000   1.00
C1       0.75000    0.75000    0.64480   1.00
O1       0.25000    0.25000    0.75000   1.00
Zn1      0.21720    0.28280    0.78280   1.00
Zn1      0.28280    0.21720    0.78280   1.00
Zn1      0.28280    0.28280    0.71720   1.00
Zn1      0.21720    0.21720    0.71720   1.00
O2       0.22650    0.27350    0.83820   1.00
O2       0.22650    0.33820    0.77350   1.00
O2       0.16180    0.27350    0.77350   1.00
O2       0.27350    0.22650    0.83820   1.00
O2       0.33820    0.22650    0.77350   1.00
O2       0.27350    0.16180    0.77350   1.00
O2       0.27350    0.33820    0.72650   1.00
O2       0.33820    0.27350    0.72650   1.00
O2       0.27350    0.27350    0.66180   1.00
O2       0.16180    0.22650    0.72650   1.00
O2       0.22650    0.16180    0.72650   1.00
O2       0.22650    0.22650    0.66180   1.00
C1       0.25000    0.25000    0.85520   1.00
C1       0.25000    0.35520    0.75000   1.00
C1       0.14480    0.25000    0.75000   1.00
C1       0.35520    0.25000    0.75000   1.00
C1       0.25000    0.14480    0.75000   1.00
C1       0.25000    0.25000    0.64480   1.00
O1       0.25000    0.75000    0.25000   1.00
Zn1      0.21720    0.78280    0.28280   1.00
Zn1      0.28280    0.71720    0.28280   1.00
Zn1      0.28280    0.78280    0.21720   1.00
Zn1      0.21720    0.71720    0.21720   1.00
O2       0.22650    0.77350    0.33820   1.00
O2       0.22650    0.83820    0.27350   1.00
O2       0.16180    0.77350    0.27350   1.00
O2       0.27350    0.72650    0.33820   1.00
O2       0.33820    0.72650    0.27350   1.00
O2       0.27350    0.66180    0.27350   1.00
O2       0.27350    0.83820    0.22650   1.00
O2       0.33820    0.77350    0.22650   1.00
O2       0.27350    0.77350    0.16180   1.00
O2       0.16180    0.72650    0.22650   1.00
O2       0.22650    0.66180    0.22650   1.00
O2       0.22650    0.72650    0.16180   1.00
C1       0.25000    0.75000    0.35520   1.00
C1       0.25000    0.85520    0.25000   1.00
C1       0.14480    0.75000    0.25000   1.00
C1       0.35520    0.75000    0.25000   1.00
C1       0.25000    0.64480    0.25000   1.00
C1       0.25000    0.75000    0.14480   1.00
O1       0.75000    0.25000    0.25000   1.00
Zn1      0.71720    0.28280    0.28280   1.00
Zn1      0.78280    0.21720    0.28280   1.00
Zn1      0.78280    0.28280    0.21720   1.00
Zn1      0.71720    0.21720    0.21720   1.00
O2       0.72650    0.27350    0.33820   1.00
O2       0.72650    0.33820    0.27350   1.00
O2       0.66180    0.27350    0.27350   1.00
O2       0.77350    0.22650    0.33820   1.00
O2       0.83820    0.22650    0.27350   1.00
O2       0.77350    0.16180    0.27350   1.00
O2       0.77350    0.33820    0.22650   1.00
O2       0.83820    0.27350    0.22650   1.00
O2       0.77350    0.27350    0.16180   1.00
O2       0.66180    0.22650    0.22650   1.00
O2       0.72650    0.16180    0.22650   1.00
O2       0.72650    0.22650    0.16180   1.00
C1       0.75000    0.25000    0.35520   1.00
C1       0.75000    0.35520    0.25000   1.00
C1       0.64480    0.25000    0.25000   1.00
C1       0.85520    0.25000    0.25000   1.00
C1       0.75000    0.14480    0.25000   1.00
C1       0.75000    0.25000    0.14480   1.00
O1       0.25000    0.25000    0.25000   1.00
Zn1      0.28280    0.21720    0.21720   1.00
Zn1      0.21720    0.28280    0.21720   1.00
Zn1      0.21720    0.21720    0.28280   1.00
Zn1      0.28280    0.28280    0.28280   1.00
O2       0.27350    0.22650    0.16180   1.00
O2       0.27350    0.16180    0.22650   1.00
O2       0.33820    0.22650    0.22650   1.00
O2       0.22650    0.27350    0.16180   1.00
O2       0.16180    0.27350    0.22650   1.00
O2       0.22650    0.33820    0.22650   1.00
O2       0.22650    0.16180    0.27350   1.00
O2       0.16180    0.22650    0.27350   1.00
O2       0.22650    0.22650    0.33820   1.00
O2       0.33820    0.27350    0.27350   1.00
O2       0.27350    0.33820    0.27350   1.00
O2       0.27350    0.27350    0.33820   1.00
C1       0.25000    0.25000    0.14480   1.00
C1       0.25000    0.14480    0.25000   1.00
C1       0.35520    0.25000    0.25000   1.00
C1       0.14480    0.25000    0.25000   1.00
C1       0.25000    0.35520    0.25000   1.00
C1       0.25000    0.25000    0.35520   1.00
O1       0.75000    0.75000    0.25000   1.00
Zn1      0.78280    0.71720    0.21720   1.00
Zn1      0.71720    0.78280    0.21720   1.00
Zn1      0.71720    0.71720    0.28280   1.00
Zn1      0.78280    0.78280    0.28280   1.00
O2       0.77350    0.72650    0.16180   1.00
O2       0.77350    0.66180    0.22650   1.00
O2       0.83820    0.72650    0.22650   1.00
O2       0.72650    0.77350    0.16180   1.00
O2       0.66180    0.77350    0.22650   1.00
O2       0.72650    0.83820    0.22650   1.00
O2       0.72650    0.66180    0.27350   1.00
O2       0.66180    0.72650    0.27350   1.00
O2       0.72650    0.72650    0.33820   1.00
O2       0.83820    0.77350    0.27350   1.00
O2       0.77350    0.83820    0.27350   1.00
O2       0.77350    0.77350    0.33820   1.00
C1       0.75000    0.75000    0.14480   1.00
C1       0.75000    0.64480    0.25000   1.00
C1       0.85520    0.75000    0.25000   1.00
C1       0.64480    0.75000    0.25000   1.00
C1       0.75000    0.85520    0.25000   1.00
C1       0.75000    0.75000    0.35520   1.00
O1       0.75000    0.25000    0.75000   1.00
Zn1      0.78280    0.21720    0.71720   1.00
Zn1      0.71720    0.28280    0.71720   1.00
Zn1      0.71720    0.21720    0.78280   1.00
Zn1      0.78280    0.28280    0.78280   1.00
O2       0.77350    0.22650    0.66180   1.00
O2       0.77350    0.16180    0.72650   1.00
O2       0.83820    0.22650    0.72650   1.00
O2       0.72650    0.27350    0.66180   1.00
O2       0.66180    0.27350    0.72650   1.00
O2       0.72650    0.33820    0.72650   1.00
O2       0.72650    0.16180    0.77350   1.00
O2       0.66180    0.22650    0.77350   1.00
O2       0.72650    0.22650    0.83820   1.00
O2       0.83820    0.27350    0.77350   1.00
O2       0.77350    0.33820    0.77350   1.00
O2       0.77350    0.27350    0.83820   1.00
C1       0.75000    0.25000    0.64480   1.00
C1       0.75000    0.14480    0.75000   1.00
C1       0.85520    0.25000    0.75000   1.00
C1       0.64480    0.25000    0.75000   1.00
C1       0.75000    0.35520    0.75000   1.00
C1       0.75000    0.25000    0.85520   1.00
O1       0.25000    0.75000    0.75000   1.00
Zn1      0.28280    0.71720    0.71720   1.00
Zn1      0.21720    0.78280    0.71720   1.00
Zn1      0.21720    0.71720    0.78280   1.00
Zn1      0.28280    0.78280    0.78280   1.00
O2       0.27350    0.72650    0.66180   1.00
O2       0.27350    0.66180    0.72650   1.00
O2       0.33820    0.72650    0.72650   1.00
O2       0.22650    0.77350    0.66180   1.00
O2       0.16180    0.77350    0.72650   1.00
O2       0.22650    0.83820    0.72650   1.00
O2       0.22650    0.66180    0.77350   1.00
O2       0.16180    0.72650    0.77350   1.00
O2       0.22650    0.72650    0.83820   1.00
O2       0.33820    0.77350    0.77350   1.00
O2       0.27350    0.83820    0.77350   1.00
O2       0.27350    0.77350    0.83820   1.00
C1       0.25000    0.75000    0.64480   1.00
C1       0.25000    0.64480    0.75000   1.00
C1       0.35520    0.75000    0.75000   1.00
C1       0.14480    0.75000    0.75000   1.00
C1       0.25000    0.85520    0.75000   1.00
C1       0.25000    0.75000    0.85520   1.00
C4       0.74995    0.74992    0.97915   1.00
C4       0.75005    0.75008    1.02085   1.00
C3       0.75958    0.71649    0.95708   1.00
C3       0.71494    0.74763    1.04225   1.00
C3       0.73995    0.78396    0.95816   1.00
C3a      0.78554    0.75219    1.04263   1.00
C2       0.74990    0.75150    0.89483   1.00
C2       0.74978    0.74855    1.10517   1.00
C3       0.75956    0.71734    0.91566   1.00
C3       0.71487    0.74686    1.08359   1.00
C3       0.74010    0.78477    0.91680   1.00
C3       0.78484    0.75126    1.08415   1.00
H1       0.76718    0.68966    0.97192   1.00
H1       0.68738    0.74601    1.02685   1.00
H1       0.76717    0.69119    0.89968   1.00
H1       0.68734    0.74486    1.09895   1.00
H1       0.73279    0.81158    0.90179   1.00
H1       0.81186    0.75300    1.10043   1.00
C5       0.82460    0.75628    1.02239   1.00
H1       0.73299    0.81039    0.97401   1.00
H2       0.84903    0.75350    1.04354   1.00
H2       0.82817    0.73215    1.00103   1.00
N1       0.82763    0.79417    1.00292   1.00
C6       0.82504    0.82940    1.02012   1.00
C6       0.83390    0.80015    0.96460   1.00
C6       0.82933    0.85827    0.99243   1.00
C6       0.83496    0.83966    0.95711   1.00
H3       0.82006    0.83397    1.05099   1.00
H3       0.83705    0.77722    0.94309   1.00
H3       0.82850    0.88941    0.99741   1.00
H3       0.83930    0.85335    0.92903   1.00
C4       0.74992    0.97915    0.74995   1.00
C4       0.75008    1.02085    0.75005   1.00
C3       0.71649    0.95708    0.75958   1.00
C3       0.74763    1.04225    0.71494   1.00
C3       0.78396    0.95816    0.73995   1.00
C3a      0.75219    1.04263    0.78554   1.00
C2       0.75150    0.89483    0.74990   1.00
C2       0.74855    1.10517    0.74978   1.00
C3       0.71734    0.91566    0.75956   1.00
C3       0.74686    1.08359    0.71487   1.00
C3       0.78477    0.91680    0.74010   1.00
C3       0.75126    1.08415    0.78484   1.00
H1       0.68966    0.97192    0.76718   1.00
H1       0.74601    1.02685    0.68738   1.00
H1       0.69119    0.89968    0.76717   1.00
H1       0.74486    1.09895    0.68734   1.00
H1       0.81158    0.90179    0.73279   1.00
H1       0.75300    1.10043    0.81186   1.00
C5       0.75628    1.02239    0.82460   1.00
H1       0.81039    0.97401    0.73299   1.00
H2       0.75350    1.04354    0.84903   1.00
H2       0.73215    1.00103    0.82817   1.00
N1       0.79417    1.00292    0.82763   1.00
C6       0.82940    1.02012    0.82504   1.00
C6       0.80015    0.96460    0.83390   1.00
C6       0.85827    0.99243    0.82933   1.00
C6       0.83966    0.95711    0.83496   1.00
H3       0.83397    1.05099    0.82006   1.00
H3       0.77722    0.94309    0.83705   1.00
H3       0.88941    0.99741    0.82850   1.00
H3       0.85335    0.92903    0.83930   1.00
C4       0.52085    0.74995    0.75008   1.00
C4       0.47915    0.75005    0.74992   1.00
C3       0.54292    0.75958    0.78351   1.00
C3       0.45775    0.71494    0.75237   1.00
C3       0.54184    0.73995    0.71604   1.00
C3a      0.45737    0.78554    0.74781   1.00
C2       0.60517    0.74990    0.74850   1.00
C2       0.39483    0.74978    0.75145   1.00
C3       0.58434    0.75956    0.78266   1.00
C3       0.41641    0.71487    0.75314   1.00
C3       0.58320    0.74010    0.71523   1.00
C3       0.41585    0.78484    0.74874   1.00
H1       0.52808    0.76718    0.81034   1.00
H1       0.47315    0.68738    0.75399   1.00
H1       0.60032    0.76717    0.80881   1.00
H1       0.40105    0.68734    0.75514   1.00
H1       0.59821    0.73279    0.68842   1.00
H1       0.39957    0.81186    0.74700   1.00
C5       0.47761    0.82460    0.74372   1.00
H1       0.52599    0.73299    0.68961   1.00
H2       0.45646    0.84903    0.74650   1.00
H2       0.49897    0.82817    0.76785   1.00
N1       0.49708    0.82763    0.70583   1.00
C6       0.47988    0.82504    0.67060   1.00
C6       0.53540    0.83390    0.69985   1.00
C6       0.50757    0.82933    0.64173   1.00
C6       0.54289    0.83496    0.66034   1.00
H3       0.44901    0.82006    0.66603   1.00
H3       0.55691    0.83705    0.72278   1.00
H3       0.50259    0.82850    0.61059   1.00
H3       0.57097    0.83930    0.64665   1.00
C4       0.97915    0.74995    0.74992   1.00
C4       1.02085    0.75005    0.75008   1.00
C3       0.95708    0.75958    0.71649   1.00
C3       1.04225    0.71494    0.74763   1.00
C3       0.95816    0.73995    0.78396   1.00
C3a      1.04263    0.78554    0.75219   1.00
C2       0.89483    0.74990    0.75150   1.00
C2       1.10517    0.74978    0.74855   1.00
C3       0.91566    0.75956    0.71734   1.00
C3       1.08359    0.71487    0.74686   1.00
C3       0.91680    0.74010    0.78477   1.00
C3       1.08415    0.78484    0.75126   1.00
H1       0.97192    0.76718    0.68966   1.00
H1       1.02685    0.68738    0.74601   1.00
H1       0.89968    0.76717    0.69119   1.00
H1       1.09895    0.68734    0.74486   1.00
H1       0.90179    0.73279    0.81158   1.00
H1       1.10043    0.81186    0.75300   1.00
C5       1.02239    0.82460    0.75628   1.00
H1       0.97401    0.73299    0.81039   1.00
H2       1.04354    0.84903    0.75350   1.00
H2       1.00103    0.82817    0.73215   1.00
N1       1.00292    0.82763    0.79417   1.00
C6       1.02012    0.82504    0.82940   1.00
C6       0.96460    0.83390    0.80015   1.00
C6       0.99243    0.82933    0.85827   1.00
C6       0.95711    0.83496    0.83966   1.00
H3       1.05099    0.82006    0.83397   1.00
H3       0.94309    0.83705    0.77722   1.00
H3       0.99741    0.82850    0.88941   1.00
H3       0.92903    0.83930    0.85335   1.00
C4       0.75008    0.52085    0.74995   1.00
C4       0.74992    0.47915    0.75005   1.00
C3       0.78351    0.54292    0.75958   1.00
C3       0.75237    0.45775    0.71494   1.00
C3       0.71604    0.54184    0.73995   1.00
C3a      0.74781    0.45737    0.78554   1.00
C2       0.74850    0.60517    0.74990   1.00
C2       0.75145    0.39483    0.74978   1.00
C3       0.78266    0.58434    0.75956   1.00
C3       0.75314    0.41641    0.71487   1.00
C3       0.71523    0.58320    0.74010   1.00
C3       0.74874    0.41585    0.78484   1.00
H1       0.81034    0.52808    0.76718   1.00
H1       0.75399    0.47315    0.68738   1.00
H1       0.80881    0.60032    0.76717   1.00
H1       0.75514    0.40105    0.68734   1.00
H1       0.68842    0.59821    0.73279   1.00
H1       0.74700    0.39957    0.81186   1.00
C5       0.74372    0.47761    0.82460   1.00
H1       0.68961    0.52599    0.73299   1.00
H2       0.74650    0.45646    0.84903   1.00
H2       0.76785    0.49897    0.82817   1.00
N1       0.70583    0.49708    0.82763   1.00
C6       0.67060    0.47988    0.82504   1.00
C6       0.69985    0.53540    0.83390   1.00
C6       0.64173    0.50757    0.82933   1.00
C6       0.66034    0.54289    0.83496   1.00
H3       0.66603    0.44901    0.82006   1.00
H3       0.72278    0.55691    0.83705   1.00
H3       0.61059    0.50259    0.82850   1.00
H3       0.64665    0.57097    0.83930   1.00
C4       0.74995    0.75008    0.52085   1.00
C4       0.75005    0.74992    0.47915   1.00
C3       0.75958    0.78351    0.54292   1.00
C3       0.71494    0.75237    0.45775   1.00
C3       0.73995    0.71604    0.54184   1.00
C3a      0.78554    0.74781    0.45737   1.00
C2       0.74990    0.74850    0.60517   1.00
C2       0.74978    0.75145    0.39483   1.00
C3       0.75956    0.78266    0.58434   1.00
C3       0.71487    0.75314    0.41641   1.00
C3       0.74010    0.71523    0.58320   1.00
C3       0.78484    0.74874    0.41585   1.00
H1       0.76718    0.81034    0.52808   1.00
H1       0.68738    0.75399    0.47315   1.00
H1       0.76717    0.80881    0.60032   1.00
H1       0.68734    0.75514    0.40105   1.00
H1       0.73279    0.68842    0.59821   1.00
H1       0.81186    0.74700    0.39957   1.00
C5       0.82460    0.74372    0.47761   1.00
H1       0.73299    0.68961    0.52599   1.00
H2       0.84903    0.74650    0.45646   1.00
H2       0.82817    0.76785    0.49897   1.00
N1       0.82763    0.70583    0.49708   1.00
C6       0.82504    0.67060    0.47988   1.00
C6       0.83390    0.69985    0.53540   1.00
C6       0.82933    0.64173    0.50757   1.00
C6       0.83496    0.66034    0.54289   1.00
H3       0.82006    0.66603    0.44901   1.00
H3       0.83705    0.72278    0.55691   1.00
H3       0.82850    0.61059    0.50259   1.00
H3       0.83930    0.64665    0.57097   1.00
C4       0.24995    0.24992    0.97915   1.00
C4       0.25005    0.25008    1.02085   1.00
C3       0.25958    0.21649    0.95708   1.00
C3       0.21494    0.24763    1.04225   1.00
C3       0.23995    0.28396    0.95816   1.00
C3a      0.28554    0.25219    1.04263   1.00
C2       0.24990    0.25150    0.89483   1.00
C2       0.24978    0.24855    1.10517   1.00
C3       0.25956    0.21734    0.91566   1.00
C3       0.21487    0.24686    1.08359   1.00
C3       0.24010    0.28477    0.91680   1.00
C3       0.28484    0.25126    1.08415   1.00
H1       0.26718    0.18966    0.97192   1.00
H1       0.18738    0.24601    1.02685   1.00
H1       0.26717    0.19119    0.89968   1.00
H1       0.18734    0.24486    1.09895   1.00
H1       0.23279    0.31158    0.90179   1.00
H1       0.31186    0.25300    1.10043   1.00
C5       0.32460    0.25628    1.02239   1.00
H1       0.23299    0.31039    0.97401   1.00
H2       0.34903    0.25350    1.04354   1.00
H2       0.32817    0.23215    1.00103   1.00
N1       0.32763    0.29417    1.00292   1.00
C6       0.32504    0.32940    1.02012   1.00
C6       0.33390    0.30015    0.96460   1.00
C6       0.32933    0.35827    0.99243   1.00
C6       0.33496    0.33966    0.95711   1.00
H3       0.32006    0.33397    1.05099   1.00
H3       0.33705    0.27722    0.94309   1.00
H3       0.32850    0.38941    0.99741   1.00
H3       0.33930    0.35335    0.92903   1.00
C4       0.24992    0.47915    0.74995   1.00
C4       0.25008    0.52085    0.75005   1.00
C3       0.21649    0.45708    0.75958   1.00
C3       0.24763    0.54225    0.71494   1.00
C3       0.28396    0.45816    0.73995   1.00
C3a      0.25219    0.54263    0.78554   1.00
C2       0.25150    0.39483    0.74990   1.00
C2       0.24855    0.60517    0.74978   1.00
C3       0.21734    0.41566    0.75956   1.00
C3       0.24686    0.58359    0.71487   1.00
C3       0.28477    0.41680    0.74010   1.00
C3       0.25126    0.58415    0.78484   1.00
H1       0.18966    0.47192    0.76718   1.00
H1       0.24601    0.52685    0.68738   1.00
H1       0.19119    0.39968    0.76717   1.00
H1       0.24486    0.59895    0.68734   1.00
H1       0.31158    0.40179    0.73279   1.00
H1       0.25300    0.60043    0.81186   1.00
C5       0.25628    0.52239    0.82460   1.00
H1       0.31039    0.47401    0.73299   1.00
H2       0.25350    0.54354    0.84903   1.00
H2       0.23215    0.50103    0.82817   1.00
N1       0.29417    0.50292    0.82763   1.00
C6       0.32940    0.52012    0.82504   1.00
C6       0.30015    0.46460    0.83390   1.00
C6       0.35827    0.49243    0.82933   1.00
C6       0.33966    0.45711    0.83496   1.00
H3       0.33397    0.55099    0.82006   1.00
H3       0.27722    0.44309    0.83705   1.00
H3       0.38941    0.49741    0.82850   1.00
H3       0.35335    0.42903    0.83930   1.00
C4       0.02085    0.24995    0.75008   1.00
C4       -0.02085   0.25005    0.74992   1.00
C3       0.04292    0.25958    0.78351   1.00
C3       -0.04225   0.21494    0.75237   1.00
C3       0.04184    0.23995    0.71604   1.00
C3a      -0.04263   0.28554    0.74781   1.00
C2       0.10517    0.24990    0.74850   1.00
C2       -0.10517   0.24978    0.75145   1.00
C3       0.08434    0.25956    0.78266   1.00
C3       -0.08359   0.21487    0.75314   1.00
C3       0.08320    0.24010    0.71523   1.00
C3       -0.08415   0.28484    0.74874   1.00
H1       0.02808    0.26718    0.81034   1.00
H1       -0.02685   0.18738    0.75399   1.00
H1       0.10032    0.26717    0.80881   1.00
H1       -0.09895   0.18734    0.75514   1.00
H1       0.09821    0.23279    0.68842   1.00
H1       -0.10043   0.31186    0.74700   1.00
C5       -0.02239   0.32460    0.74372   1.00
H1       0.02599    0.23299    0.68961   1.00
H2       -0.04354   0.34903    0.74650   1.00
H2       -0.00103   0.32817    0.76785   1.00
N1       -0.00292   0.32763    0.70583   1.00
C6       -0.02012   0.32504    0.67060   1.00
C6       0.03540    0.33390    0.69985   1.00
C6       0.00757    0.32933    0.64173   1.00
C6       0.04289    0.33496    0.66034   1.00
H3       -0.05099   0.32006    0.66603   1.00
H3       0.05691    0.33705    0.72278   1.00
H3       0.00259    0.32850    0.61059   1.00
H3       0.07097    0.33930    0.64665   1.00
C4       0.47915    0.24995    0.74992   1.00
C4       0.52085    0.25005    0.75008   1.00
C3       0.45708    0.25958    0.71649   1.00
C3       0.54225    0.21494    0.74763   1.00
C3       0.45816    0.23995    0.78396   1.00
C3a      0.54263    0.28554    0.75219   1.00
C2       0.39483    0.24990    0.75150   1.00
C2       0.60517    0.24978    0.74855   1.00
C3       0.41566    0.25956    0.71734   1.00
C3       0.58359    0.21487    0.74686   1.00
C3       0.41680    0.24010    0.78477   1.00
C3       0.58415    0.28484    0.75126   1.00
H1       0.47192    0.26718    0.68966   1.00
H1       0.52685    0.18738    0.74601   1.00
H1       0.39968    0.26717    0.69119   1.00
H1       0.59895    0.18734    0.74486   1.00
H1       0.40179    0.23279    0.81158   1.00
H1       0.60043    0.31186    0.75300   1.00
C5       0.52239    0.32460    0.75628   1.00
H1       0.47401    0.23299    0.81039   1.00
H2       0.54354    0.34903    0.75350   1.00
H2       0.50103    0.32817    0.73215   1.00
N1       0.50292    0.32763    0.79417   1.00
C6       0.52012    0.32504    0.82940   1.00
C6       0.46460    0.33390    0.80015   1.00
C6       0.49243    0.32933    0.85827   1.00
C6       0.45711    0.33496    0.83966   1.00
H3       0.55099    0.32006    0.83397   1.00
H3       0.44309    0.33705    0.77722   1.00
H3       0.49741    0.32850    0.88941   1.00
H3       0.42903    0.33930    0.85335   1.00
C4       0.25008    0.02085    0.74995   1.00
C4       0.24992    -0.02085   0.75005   1.00
C3       0.28351    0.04292    0.75958   1.00
C3       0.25237    -0.04225   0.71494   1.00
C3       0.21604    0.04184    0.73995   1.00
C3a      0.24781    -0.04263   0.78554   1.00
C2       0.24850    0.10517    0.74990   1.00
C2       0.25145    -0.10517   0.74978   1.00
C3       0.28266    0.08434    0.75956   1.00
C3       0.25314    -0.08359   0.71487   1.00
C3       0.21523    0.08320    0.74010   1.00
C3       0.24874    -0.08415   0.78484   1.00
H1       0.31034    0.02808    0.76718   1.00
H1       0.25399    -0.02685   0.68738   1.00
H1       0.30881    0.10032    0.76717   1.00
H1       0.25514    -0.09895   0.68734   1.00
H1       0.18842    0.09821    0.73279   1.00
H1       0.24700    -0.10043   0.81186   1.00
C5       0.24372    -0.02239   0.82460   1.00
H1       0.18961    0.02599    0.73299   1.00
H2       0.24650    -0.04354   0.84903   1.00
H2       0.26785    -0.00103   0.82817   1.00
N1       0.20583    -0.00292   0.82763   1.00
C6       0.17060    -0.02012   0.82504   1.00
C6       0.19985    0.03540    0.83390   1.00
C6       0.14173    0.00757    0.82933   1.00
C6       0.16034    0.04289    0.83496   1.00
H3       0.16603    -0.05099   0.82006   1.00
H3       0.22278    0.05691    0.83705   1.00
H3       0.11059    0.00259    0.82850   1.00
H3       0.14665    0.07097    0.83930   1.00
C4       0.24995    0.25008    0.52085   1.00
C4       0.25005    0.24992    0.47915   1.00
C3       0.25958    0.28351    0.54292   1.00
C3       0.21494    0.25237    0.45775   1.00
C3       0.23995    0.21604    0.54184   1.00
C3a      0.28554    0.24781    0.45737   1.00
C2       0.24990    0.24850    0.60517   1.00
C2       0.24978    0.25145    0.39483   1.00
C3       0.25956    0.28266    0.58434   1.00
C3       0.21487    0.25314    0.41641   1.00
C3       0.24010    0.21523    0.58320   1.00
C3       0.28484    0.24874    0.41585   1.00
H1       0.26718    0.31034    0.52808   1.00
H1       0.18738    0.25399    0.47315   1.00
H1       0.26717    0.30881    0.60032   1.00
H1       0.18734    0.25514    0.40105   1.00
H1       0.23279    0.18842    0.59821   1.00
H1       0.31186    0.24700    0.39957   1.00
C5       0.32460    0.24372    0.47761   1.00
H1       0.23299    0.18961    0.52599   1.00
H2       0.34903    0.24650    0.45646   1.00
H2       0.32817    0.26785    0.49897   1.00
N1       0.32763    0.20583    0.49708   1.00
C6       0.32504    0.17060    0.47988   1.00
C6       0.33390    0.19985    0.53540   1.00
C6       0.32933    0.14173    0.50757   1.00
C6       0.33496    0.16034    0.54289   1.00
H3       0.32006    0.16603    0.44901   1.00
H3       0.33705    0.22278    0.55691   1.00
H3       0.32850    0.11059    0.50259   1.00
H3       0.33930    0.14665    0.57097   1.00
C4       0.24995    0.74992    0.47915   1.00
C4       0.25005    0.75008    0.52085   1.00
C3       0.25958    0.71649    0.45708   1.00
C3       0.21494    0.74763    0.54225   1.00
C3       0.23995    0.78396    0.45816   1.00
C3a      0.28554    0.75219    0.54263   1.00
C2       0.24990    0.75150    0.39483   1.00
C2       0.24978    0.74855    0.60517   1.00
C3       0.25956    0.71734    0.41566   1.00
C3       0.21487    0.74686    0.58359   1.00
C3       0.24010    0.78477    0.41680   1.00
C3       0.28484    0.75126    0.58415   1.00
H1       0.26718    0.68966    0.47192   1.00
H1       0.18738    0.74601    0.52685   1.00
H1       0.26717    0.69119    0.39968   1.00
H1       0.18734    0.74486    0.59895   1.00
H1       0.23279    0.81158    0.40179   1.00
H1       0.31186    0.75300    0.60043   1.00
C5       0.32460    0.75628    0.52239   1.00
H1       0.23299    0.81039    0.47401   1.00
H2       0.34903    0.75350    0.54354   1.00
H2       0.32817    0.73215    0.50103   1.00
N1       0.32763    0.79417    0.50292   1.00
C6       0.32504    0.82940    0.52012   1.00
C6       0.33390    0.80015    0.46460   1.00
C6       0.32933    0.85827    0.49243   1.00
C6       0.33496    0.83966    0.45711   1.00
H3       0.32006    0.83397    0.55099   1.00
H3       0.33705    0.77722    0.44309   1.00
H3       0.32850    0.88941    0.49741   1.00
H3       0.33930    0.85335    0.42903   1.00
C4       0.24992    0.97915    0.24995   1.00
C4       0.25008    1.02085    0.25005   1.00
C3       0.21649    0.95708    0.25958   1.00
C3       0.24763    1.04225    0.21494   1.00
C3       0.28396    0.95816    0.23995   1.00
C3a      0.25219    1.04263    0.28554   1.00
C2       0.25150    0.89483    0.24990   1.00
C2       0.24855    1.10517    0.24978   1.00
C3       0.21734    0.91566    0.25956   1.00
C3       0.24686    1.08359    0.21487   1.00
C3       0.28477    0.91680    0.24010   1.00
C3       0.25126    1.08415    0.28484   1.00
H1       0.18966    0.97192    0.26718   1.00
H1       0.24601    1.02685    0.18738   1.00
H1       0.19119    0.89968    0.26717   1.00
H1       0.24486    1.09895    0.18734   1.00
H1       0.31158    0.90179    0.23279   1.00
H1       0.25300    1.10043    0.31186   1.00
C5       0.25628    1.02239    0.32460   1.00
H1       0.31039    0.97401    0.23299   1.00
H2       0.25350    1.04354    0.34903   1.00
H2       0.23215    1.00103    0.32817   1.00
N1       0.29417    1.00292    0.32763   1.00
C6       0.32940    1.02012    0.32504   1.00
C6       0.30015    0.96460    0.33390   1.00
C6       0.35827    0.99243    0.32933   1.00
C6       0.33966    0.95711    0.33496   1.00
H3       0.33397    1.05099    0.32006   1.00
H3       0.27722    0.94309    0.33705   1.00
H3       0.38941    0.99741    0.32850   1.00
H3       0.35335    0.92903    0.33930   1.00
C4       0.02085    0.74995    0.25008   1.00
C4       -0.02085   0.75005    0.24992   1.00
C3       0.04292    0.75958    0.28351   1.00
C3       -0.04225   0.71494    0.25237   1.00
C3       0.04184    0.73995    0.21604   1.00
C3a      -0.04263   0.78554    0.24781   1.00
C2       0.10517    0.74990    0.24850   1.00
C2       -0.10517   0.74978    0.25145   1.00
C3       0.08434    0.75956    0.28266   1.00
C3       -0.08359   0.71487    0.25314   1.00
C3       0.08320    0.74010    0.21523   1.00
C3       -0.08415   0.78484    0.24874   1.00
H1       0.02808    0.76718    0.31034   1.00
H1       -0.02685   0.68738    0.25399   1.00
H1       0.10032    0.76717    0.30881   1.00
H1       -0.09895   0.68734    0.25514   1.00
H1       0.09821    0.73279    0.18842   1.00
H1       -0.10043   0.81186    0.24700   1.00
C5       -0.02239   0.82460    0.24372   1.00
H1       0.02599    0.73299    0.18961   1.00
H2       -0.04354   0.84903    0.24650   1.00
H2       -0.00103   0.82817    0.26785   1.00
N1       -0.00292   0.82763    0.20583   1.00
C6       -0.02012   0.82504    0.17060   1.00
C6       0.03540    0.83390    0.19985   1.00
C6       0.00757    0.82933    0.14173   1.00
C6       0.04289    0.83496    0.16034   1.00
H3       -0.05099   0.82006    0.16603   1.00
H3       0.05691    0.83705    0.22278   1.00
H3       0.00259    0.82850    0.11059   1.00
H3       0.07097    0.83930    0.14665   1.00
C4       0.47915    0.74995    0.24992   1.00
C4       0.52085    0.75005    0.25008   1.00
C3       0.45708    0.75958    0.21649   1.00
C3       0.54225    0.71494    0.24763   1.00
C3       0.45816    0.73995    0.28396   1.00
C3a      0.54263    0.78554    0.25219   1.00
C2       0.39483    0.74990    0.25150   1.00
C2       0.60517    0.74978    0.24855   1.00
C3       0.41566    0.75956    0.21734   1.00
C3       0.58359    0.71487    0.24686   1.00
C3       0.41680    0.74010    0.28477   1.00
C3       0.58415    0.78484    0.25126   1.00
H1       0.47192    0.76718    0.18966   1.00
H1       0.52685    0.68738    0.24601   1.00
H1       0.39968    0.76717    0.19119   1.00
H1       0.59895    0.68734    0.24486   1.00
H1       0.40179    0.73279    0.31158   1.00
H1       0.60043    0.81186    0.25300   1.00
C5       0.52239    0.82460    0.25628   1.00
H1       0.47401    0.73299    0.31039   1.00
H2       0.54354    0.84903    0.25350   1.00
H2       0.50103    0.82817    0.23215   1.00
N1       0.50292    0.82763    0.29417   1.00
C6       0.52012    0.82504    0.32940   1.00
C6       0.46460    0.83390    0.30015   1.00
C6       0.49243    0.82933    0.35827   1.00
C6       0.45711    0.83496    0.33966   1.00
H3       0.55099    0.82006    0.33397   1.00
H3       0.44309    0.83705    0.27722   1.00
H3       0.49741    0.82850    0.38941   1.00
H3       0.42903    0.83930    0.35335   1.00
C4       0.25008    0.52085    0.24995   1.00
C4       0.24992    0.47915    0.25005   1.00
C3       0.28351    0.54292    0.25958   1.00
C3       0.25237    0.45775    0.21494   1.00
C3       0.21604    0.54184    0.23995   1.00
C3a      0.24781    0.45737    0.28554   1.00
C2       0.24850    0.60517    0.24990   1.00
C2       0.25145    0.39483    0.24978   1.00
C3       0.28266    0.58434    0.25956   1.00
C3       0.25314    0.41641    0.21487   1.00
C3       0.21523    0.58320    0.24010   1.00
C3       0.24874    0.41585    0.28484   1.00
H1       0.31034    0.52808    0.26718   1.00
H1       0.25399    0.47315    0.18738   1.00
H1       0.30881    0.60032    0.26717   1.00
H1       0.25514    0.40105    0.18734   1.00
H1       0.18842    0.59821    0.23279   1.00
H1       0.24700    0.39957    0.31186   1.00
C5       0.24372    0.47761    0.32460   1.00
H1       0.18961    0.52599    0.23299   1.00
H2       0.24650    0.45646    0.34903   1.00
H2       0.26785    0.49897    0.32817   1.00
N1       0.20583    0.49708    0.32763   1.00
C6       0.17060    0.47988    0.32504   1.00
C6       0.19985    0.53540    0.33390   1.00
C6       0.14173    0.50757    0.32933   1.00
C6       0.16034    0.54289    0.33496   1.00
H3       0.16603    0.44901    0.32006   1.00
H3       0.22278    0.55691    0.33705   1.00
H3       0.11059    0.50259    0.32850   1.00
H3       0.14665    0.57097    0.33930   1.00
C4       0.24995    0.75008    0.02085   1.00
C4       0.25005    0.74992    -0.02085   1.00
C3       0.25958    0.78351    0.04292   1.00
C3       0.21494    0.75237    -0.04225   1.00
C3       0.23995    0.71604    0.04184   1.00
C3a      0.28554    0.74781    -0.04263   1.00
C2       0.24990    0.74850    0.10517   1.00
C2       0.24978    0.75145    -0.10517   1.00
C3       0.25956    0.78266    0.08434   1.00
C3       0.21487    0.75314    -0.08359   1.00
C3       0.24010    0.71523    0.08320   1.00
C3       0.28484    0.74874    -0.08415   1.00
H1       0.26718    0.81034    0.02808   1.00
H1       0.18738    0.75399    -0.02685   1.00
H1       0.26717    0.80881    0.10032   1.00
H1       0.18734    0.75514    -0.09895   1.00
H1       0.23279    0.68842    0.09821   1.00
H1       0.31186    0.74700    -0.10043   1.00
C5       0.32460    0.74372    -0.02239   1.00
H1       0.23299    0.68961    0.02599   1.00
H2       0.34903    0.74650    -0.04354   1.00
H2       0.32817    0.76785    -0.00103   1.00
N1       0.32763    0.70583    -0.00292   1.00
C6       0.32504    0.67060    -0.02012   1.00
C6       0.33390    0.69985    0.03540   1.00
C6       0.32933    0.64173    0.00757   1.00
C6       0.33496    0.66034    0.04289   1.00
H3       0.32006    0.66603    -0.05099   1.00
H3       0.33705    0.72278    0.05691   1.00
H3       0.32850    0.61059    0.00259   1.00
H3       0.33930    0.64665    0.07097   1.00
C4       0.74995    0.24992    0.47915   1.00
C4       0.75005    0.25008    0.52085   1.00
C3       0.75958    0.21649    0.45708   1.00
C3       0.71494    0.24763    0.54225   1.00
C3       0.73995    0.28396    0.45816   1.00
C3a      0.78554    0.25219    0.54263   1.00
C2       0.74990    0.25150    0.39483   1.00
C2       0.74978    0.24855    0.60517   1.00
C3       0.75956    0.21734    0.41566   1.00
C3       0.71487    0.24686    0.58359   1.00
C3       0.74010    0.28477    0.41680   1.00
C3       0.78484    0.25126    0.58415   1.00
H1       0.76718    0.18966    0.47192   1.00
H1       0.68738    0.24601    0.52685   1.00
H1       0.76717    0.19119    0.39968   1.00
H1       0.68734    0.24486    0.59895   1.00
H1       0.73279    0.31158    0.40179   1.00
H1       0.81186    0.25300    0.60043   1.00
C5       0.82460    0.25628    0.52239   1.00
H1       0.73299    0.31039    0.47401   1.00
H2       0.84903    0.25350    0.54354   1.00
H2       0.82817    0.23215    0.50103   1.00
N1       0.82763    0.29417    0.50292   1.00
C6       0.82504    0.32940    0.52012   1.00
C6       0.83390    0.30015    0.46460   1.00
C6       0.82933    0.35827    0.49243   1.00
C6       0.83496    0.33966    0.45711   1.00
H3       0.82006    0.33397    0.55099   1.00
H3       0.83705    0.27722    0.44309   1.00
H3       0.82850    0.38941    0.49741   1.00
H3       0.83930    0.35335    0.42903   1.00
C4       0.74992    0.47915    0.24995   1.00
C4       0.75008    0.52085    0.25005   1.00
C3       0.71649    0.45708    0.25958   1.00
C3       0.74763    0.54225    0.21494   1.00
C3       0.78396    0.45816    0.23995   1.00
C3a      0.75219    0.54263    0.28554   1.00
C2       0.75150    0.39483    0.24990   1.00
C2       0.74855    0.60517    0.24978   1.00
C3       0.71734    0.41566    0.25956   1.00
C3       0.74686    0.58359    0.21487   1.00
C3       0.78477    0.41680    0.24010   1.00
C3       0.75126    0.58415    0.28484   1.00
H1       0.68966    0.47192    0.26718   1.00
H1       0.74601    0.52685    0.18738   1.00
H1       0.69119    0.39968    0.26717   1.00
H1       0.74486    0.59895    0.18734   1.00
H1       0.81158    0.40179    0.23279   1.00
H1       0.75300    0.60043    0.31186   1.00
C5       0.75628    0.52239    0.32460   1.00
H1       0.81039    0.47401    0.23299   1.00
H2       0.75350    0.54354    0.34903   1.00
H2       0.73215    0.50103    0.32817   1.00
N1       0.79417    0.50292    0.32763   1.00
C6       0.82940    0.52012    0.32504   1.00
C6       0.80015    0.46460    0.33390   1.00
C6       0.85827    0.49243    0.32933   1.00
C6       0.83966    0.45711    0.33496   1.00
H3       0.83397    0.55099    0.32006   1.00
H3       0.77722    0.44309    0.33705   1.00
H3       0.88941    0.49741    0.32850   1.00
H3       0.85335    0.42903    0.33930   1.00
C4       0.52085    0.24995    0.25008   1.00
C4       0.47915    0.25005    0.24992   1.00
C3       0.54292    0.25958    0.28351   1.00
C3       0.45775    0.21494    0.25237   1.00
C3       0.54184    0.23995    0.21604   1.00
C3a      0.45737    0.28554    0.24781   1.00
C2       0.60517    0.24990    0.24850   1.00
C2       0.39483    0.24978    0.25145   1.00
C3       0.58434    0.25956    0.28266   1.00
C3       0.41641    0.21487    0.25314   1.00
C3       0.58320    0.24010    0.21523   1.00
C3       0.41585    0.28484    0.24874   1.00
H1       0.52808    0.26718    0.31034   1.00
H1       0.47315    0.18738    0.25399   1.00
H1       0.60032    0.26717    0.30881   1.00
H1       0.40105    0.18734    0.25514   1.00
H1       0.59821    0.23279    0.18842   1.00
H1       0.39957    0.31186    0.24700   1.00
C5       0.47761    0.32460    0.24372   1.00
H1       0.52599    0.23299    0.18961   1.00
H2       0.45646    0.34903    0.24650   1.00
H2       0.49897    0.32817    0.26785   1.00
N1       0.49708    0.32763    0.20583   1.00
C6       0.47988    0.32504    0.17060   1.00
C6       0.53540    0.33390    0.19985   1.00
C6       0.50757    0.32933    0.14173   1.00
C6       0.54289    0.33496    0.16034   1.00
H3       0.44901    0.32006    0.16603   1.00
H3       0.55691    0.33705    0.22278   1.00
H3       0.50259    0.32850    0.11059   1.00
H3       0.57097    0.33930    0.14665   1.00
C4       0.97915    0.24995    0.24992   1.00
C4       1.02085    0.25005    0.25008   1.00
C3       0.95708    0.25958    0.21649   1.00
C3       1.04225    0.21494    0.24763   1.00
C3       0.95816    0.23995    0.28396   1.00
C3a      1.04263    0.28554    0.25219   1.00
C2       0.89483    0.24990    0.25150   1.00
C2       1.10517    0.24978    0.24855   1.00
C3       0.91566    0.25956    0.21734   1.00
C3       1.08359    0.21487    0.24686   1.00
C3       0.91680    0.24010    0.28477   1.00
C3       1.08415    0.28484    0.25126   1.00
H1       0.97192    0.26718    0.18966   1.00
H1       1.02685    0.18738    0.24601   1.00
H1       0.89968    0.26717    0.19119   1.00
H1       1.09895    0.18734    0.24486   1.00
H1       0.90179    0.23279    0.31158   1.00
H1       1.10043    0.31186    0.25300   1.00
C5       1.02239    0.32460    0.25628   1.00
H1       0.97401    0.23299    0.31039   1.00
H2       1.04354    0.34903    0.25350   1.00
H2       1.00103    0.32817    0.23215   1.00
N1       1.00292    0.32763    0.29417   1.00
C6       1.02012    0.32504    0.32940   1.00
C6       0.96460    0.33390    0.30015   1.00
C6       0.99243    0.32933    0.35827   1.00
C6       0.95711    0.33496    0.33966   1.00
H3       1.05099    0.32006    0.33397   1.00
H3       0.94309    0.33705    0.27722   1.00
H3       0.99741    0.32850    0.38941   1.00
H3       0.92903    0.33930    0.35335   1.00
C4       0.75008    0.02085    0.24995   1.00
C4       0.74992    -0.02085   0.25005   1.00
C3       0.78351    0.04292    0.25958   1.00
C3       0.75237    -0.04225   0.21494   1.00
C3       0.71604    0.04184    0.23995   1.00
C3a      0.74781    -0.04263   0.28554   1.00
C2       0.74850    0.10517    0.24990   1.00
C2       0.75145    -0.10517   0.24978   1.00
C3       0.78266    0.08434    0.25956   1.00
C3       0.75314    -0.08359   0.21487   1.00
C3       0.71523    0.08320    0.24010   1.00
C3       0.74874    -0.08415   0.28484   1.00
H1       0.81034    0.02808    0.26718   1.00
H1       0.75399    -0.02685   0.18738   1.00
H1       0.80881    0.10032    0.26717   1.00
H1       0.75514    -0.09895   0.18734   1.00
H1       0.68842    0.09821    0.23279   1.00
H1       0.74700    -0.10043   0.31186   1.00
C5       0.74372    -0.02239   0.32460   1.00
H1       0.68961    0.02599    0.23299   1.00
H2       0.74650    -0.04354   0.34903   1.00
H2       0.76785    -0.00103   0.32817   1.00
N1       0.70583    -0.00292   0.32763   1.00
C6       0.67060    -0.02012   0.32504   1.00
C6       0.69985    0.03540    0.33390   1.00
C6       0.64173    0.00757    0.32933   1.00
C6       0.66034    0.04289    0.33496   1.00
H3       0.66603    -0.05099   0.32006   1.00
H3       0.72278    0.05691    0.33705   1.00
H3       0.61059    0.00259    0.32850   1.00
H3       0.64665    0.07097    0.33930   1.00
C4       0.74995    0.25008    0.02085   1.00
C4       0.75005    0.24992    -0.02085   1.00
C3       0.75958    0.28351    0.04292   1.00
C3       0.71494    0.25237    -0.04225   1.00
C3       0.73995    0.21604    0.04184   1.00
C3a      0.78554    0.24781    -0.04263   1.00
C2       0.74990    0.24850    0.10517   1.00
C2       0.74978    0.25145    -0.10517   1.00
C3       0.75956    0.28266    0.08434   1.00
C3       0.71487    0.25314    -0.08359   1.00
C3       0.74010    0.21523    0.08320   1.00
C3       0.78484    0.24874    -0.08415   1.00
H1       0.76718    0.31034    0.02808   1.00
H1       0.68738    0.25399    -0.02685   1.00
H1       0.76717    0.30881    0.10032   1.00
H1       0.68734    0.25514    -0.09895   1.00
H1       0.73279    0.18842    0.09821   1.00
H1       0.81186    0.24700    -0.10043   1.00
C5       0.82460    0.24372    -0.02239   1.00
H1       0.73299    0.18961    0.02599   1.00
H2       0.84903    0.24650    -0.04354   1.00
H2       0.82817    0.26785    -0.00103   1.00
N1       0.82763    0.20583    -0.00292   1.00
C6       0.82504    0.17060    -0.02012   1.00
C6       0.83390    0.19985    0.03540   1.00
C6       0.82933    0.14173    0.00757   1.00
C6       0.83496    0.16034    0.04289   1.00
H3       0.82006    0.16603    -0.05099   1.00
H3       0.83705    0.22278    0.05691   1.00
H3       0.82850    0.11059    0.00259   1.00
H3       0.83930    0.14665    0.07097   1.00
