data_IRMOF10_SG202_Ligand5_label_f.

_audit_creation_method             'generated by an auxiliary program of Tobunporous'

_symmetry_space_group_name_H-M     'P 1'
_symmetry_Int_Tables_number        1
_symmetry_cell_setting             triclinic

_cell_length_a                    34.2800
_cell_length_b                    34.2800
_cell_length_c                    34.2800
_cell_angle_alpha                 90.0000
_cell_angle_beta                  90.0000
_cell_angle_gamma                 90.0000

loop_
_atom_site_label
_atom_site_fract_x
_atom_site_fract_y
_atom_site_fract_z
_atom_site_occupancy
O1       0.75000    0.75000    0.75000   1.00
Zn1      0.71720    0.78280    0.78280   1.00
Zn1      0.78280    0.71720    0.78280   1.00
Zn1      0.78280    0.78280    0.71720   1.00
Zn1      0.71720    0.71720    0.71720   1.00
O2       0.72650    0.77350    0.83820   1.00
O2       0.72650    0.83820    0.77350   1.00
O2       0.66180    0.77350    0.77350   1.00
O2       0.77350    0.72650    0.83820   1.00
O2       0.83820    0.72650    0.77350   1.00
O2       0.77350    0.66180    0.77350   1.00
O2       0.77350    0.83820    0.72650   1.00
O2       0.83820    0.77350    0.72650   1.00
O2       0.77350    0.77350    0.66180   1.00
O2       0.66180    0.72650    0.72650   1.00
O2       0.72650    0.66180    0.72650   1.00
O2       0.72650    0.72650    0.66180   1.00
C1       0.75000    0.75000    0.85520   1.00
C1       0.75000    0.85520    0.75000   1.00
C1       0.64480    0.75000    0.75000   1.00
C1       0.85520    0.75000    0.75000   1.00
C1       0.75000    0.64480    0.75000   1.00
C1       0.75000    0.75000    0.64480   1.00
O1       0.25000    0.25000    0.75000   1.00
Zn1      0.21720    0.28280    0.78280   1.00
Zn1      0.28280    0.21720    0.78280   1.00
Zn1      0.28280    0.28280    0.71720   1.00
Zn1      0.21720    0.21720    0.71720   1.00
O2       0.22650    0.27350    0.83820   1.00
O2       0.22650    0.33820    0.77350   1.00
O2       0.16180    0.27350    0.77350   1.00
O2       0.27350    0.22650    0.83820   1.00
O2       0.33820    0.22650    0.77350   1.00
O2       0.27350    0.16180    0.77350   1.00
O2       0.27350    0.33820    0.72650   1.00
O2       0.33820    0.27350    0.72650   1.00
O2       0.27350    0.27350    0.66180   1.00
O2       0.16180    0.22650    0.72650   1.00
O2       0.22650    0.16180    0.72650   1.00
O2       0.22650    0.22650    0.66180   1.00
C1       0.25000    0.25000    0.85520   1.00
C1       0.25000    0.35520    0.75000   1.00
C1       0.14480    0.25000    0.75000   1.00
C1       0.35520    0.25000    0.75000   1.00
C1       0.25000    0.14480    0.75000   1.00
C1       0.25000    0.25000    0.64480   1.00
O1       0.25000    0.75000    0.25000   1.00
Zn1      0.21720    0.78280    0.28280   1.00
Zn1      0.28280    0.71720    0.28280   1.00
Zn1      0.28280    0.78280    0.21720   1.00
Zn1      0.21720    0.71720    0.21720   1.00
O2       0.22650    0.77350    0.33820   1.00
O2       0.22650    0.83820    0.27350   1.00
O2       0.16180    0.77350    0.27350   1.00
O2       0.27350    0.72650    0.33820   1.00
O2       0.33820    0.72650    0.27350   1.00
O2       0.27350    0.66180    0.27350   1.00
O2       0.27350    0.83820    0.22650   1.00
O2       0.33820    0.77350    0.22650   1.00
O2       0.27350    0.77350    0.16180   1.00
O2       0.16180    0.72650    0.22650   1.00
O2       0.22650    0.66180    0.22650   1.00
O2       0.22650    0.72650    0.16180   1.00
C1       0.25000    0.75000    0.35520   1.00
C1       0.25000    0.85520    0.25000   1.00
C1       0.14480    0.75000    0.25000   1.00
C1       0.35520    0.75000    0.25000   1.00
C1       0.25000    0.64480    0.25000   1.00
C1       0.25000    0.75000    0.14480   1.00
O1       0.75000    0.25000    0.25000   1.00
Zn1      0.71720    0.28280    0.28280   1.00
Zn1      0.78280    0.21720    0.28280   1.00
Zn1      0.78280    0.28280    0.21720   1.00
Zn1      0.71720    0.21720    0.21720   1.00
O2       0.72650    0.27350    0.33820   1.00
O2       0.72650    0.33820    0.27350   1.00
O2       0.66180    0.27350    0.27350   1.00
O2       0.77350    0.22650    0.33820   1.00
O2       0.83820    0.22650    0.27350   1.00
O2       0.77350    0.16180    0.27350   1.00
O2       0.77350    0.33820    0.22650   1.00
O2       0.83820    0.27350    0.22650   1.00
O2       0.77350    0.27350    0.16180   1.00
O2       0.66180    0.22650    0.22650   1.00
O2       0.72650    0.16180    0.22650   1.00
O2       0.72650    0.22650    0.16180   1.00
C1       0.75000    0.25000    0.35520   1.00
C1       0.75000    0.35520    0.25000   1.00
C1       0.64480    0.25000    0.25000   1.00
C1       0.85520    0.25000    0.25000   1.00
C1       0.75000    0.14480    0.25000   1.00
C1       0.75000    0.25000    0.14480   1.00
O1       0.25000    0.25000    0.25000   1.00
Zn1      0.28280    0.21720    0.21720   1.00
Zn1      0.21720    0.28280    0.21720   1.00
Zn1      0.21720    0.21720    0.28280   1.00
Zn1      0.28280    0.28280    0.28280   1.00
O2       0.27350    0.22650    0.16180   1.00
O2       0.27350    0.16180    0.22650   1.00
O2       0.33820    0.22650    0.22650   1.00
O2       0.22650    0.27350    0.16180   1.00
O2       0.16180    0.27350    0.22650   1.00
O2       0.22650    0.33820    0.22650   1.00
O2       0.22650    0.16180    0.27350   1.00
O2       0.16180    0.22650    0.27350   1.00
O2       0.22650    0.22650    0.33820   1.00
O2       0.33820    0.27350    0.27350   1.00
O2       0.27350    0.33820    0.27350   1.00
O2       0.27350    0.27350    0.33820   1.00
C1       0.25000    0.25000    0.14480   1.00
C1       0.25000    0.14480    0.25000   1.00
C1       0.35520    0.25000    0.25000   1.00
C1       0.14480    0.25000    0.25000   1.00
C1       0.25000    0.35520    0.25000   1.00
C1       0.25000    0.25000    0.35520   1.00
O1       0.75000    0.75000    0.25000   1.00
Zn1      0.78280    0.71720    0.21720   1.00
Zn1      0.71720    0.78280    0.21720   1.00
Zn1      0.71720    0.71720    0.28280   1.00
Zn1      0.78280    0.78280    0.28280   1.00
O2       0.77350    0.72650    0.16180   1.00
O2       0.77350    0.66180    0.22650   1.00
O2       0.83820    0.72650    0.22650   1.00
O2       0.72650    0.77350    0.16180   1.00
O2       0.66180    0.77350    0.22650   1.00
O2       0.72650    0.83820    0.22650   1.00
O2       0.72650    0.66180    0.27350   1.00
O2       0.66180    0.72650    0.27350   1.00
O2       0.72650    0.72650    0.33820   1.00
O2       0.83820    0.77350    0.27350   1.00
O2       0.77350    0.83820    0.27350   1.00
O2       0.77350    0.77350    0.33820   1.00
C1       0.75000    0.75000    0.14480   1.00
C1       0.75000    0.64480    0.25000   1.00
C1       0.85520    0.75000    0.25000   1.00
C1       0.64480    0.75000    0.25000   1.00
C1       0.75000    0.85520    0.25000   1.00
C1       0.75000    0.75000    0.35520   1.00
O1       0.75000    0.25000    0.75000   1.00
Zn1      0.78280    0.21720    0.71720   1.00
Zn1      0.71720    0.28280    0.71720   1.00
Zn1      0.71720    0.21720    0.78280   1.00
Zn1      0.78280    0.28280    0.78280   1.00
O2       0.77350    0.22650    0.66180   1.00
O2       0.77350    0.16180    0.72650   1.00
O2       0.83820    0.22650    0.72650   1.00
O2       0.72650    0.27350    0.66180   1.00
O2       0.66180    0.27350    0.72650   1.00
O2       0.72650    0.33820    0.72650   1.00
O2       0.72650    0.16180    0.77350   1.00
O2       0.66180    0.22650    0.77350   1.00
O2       0.72650    0.22650    0.83820   1.00
O2       0.83820    0.27350    0.77350   1.00
O2       0.77350    0.33820    0.77350   1.00
O2       0.77350    0.27350    0.83820   1.00
C1       0.75000    0.25000    0.64480   1.00
C1       0.75000    0.14480    0.75000   1.00
C1       0.85520    0.25000    0.75000   1.00
C1       0.64480    0.25000    0.75000   1.00
C1       0.75000    0.35520    0.75000   1.00
C1       0.75000    0.25000    0.85520   1.00
O1       0.25000    0.75000    0.75000   1.00
Zn1      0.28280    0.71720    0.71720   1.00
Zn1      0.21720    0.78280    0.71720   1.00
Zn1      0.21720    0.71720    0.78280   1.00
Zn1      0.28280    0.78280    0.78280   1.00
O2       0.27350    0.72650    0.66180   1.00
O2       0.27350    0.66180    0.72650   1.00
O2       0.33820    0.72650    0.72650   1.00
O2       0.22650    0.77350    0.66180   1.00
O2       0.16180    0.77350    0.72650   1.00
O2       0.22650    0.83820    0.72650   1.00
O2       0.22650    0.66180    0.77350   1.00
O2       0.16180    0.72650    0.77350   1.00
O2       0.22650    0.72650    0.83820   1.00
O2       0.33820    0.77350    0.77350   1.00
O2       0.27350    0.83820    0.77350   1.00
O2       0.27350    0.77350    0.83820   1.00
C1       0.25000    0.75000    0.64480   1.00
C1       0.25000    0.64480    0.75000   1.00
C1       0.35520    0.75000    0.75000   1.00
C1       0.14480    0.75000    0.75000   1.00
C1       0.25000    0.85520    0.75000   1.00
C1       0.25000    0.75000    0.85520   1.00
C5       0.82724    0.85083    1.13227   1.00
H2       0.79995    0.85931    1.14755   1.00
H2       0.83321    0.87454    1.11099   1.00
C5       0.86091    0.84767    1.16219   1.00
H2       0.87318    0.87699    1.16890   1.00
H2       0.88454    0.82875    1.15040   1.00
O_3      0.81269    0.71721    0.98000   1.00
C4       0.74956    0.75008    1.02100   1.00
C3c      0.76518    0.78132    1.04243   1.00
H1       0.77745    0.80610    1.02725   1.00
C3d      0.73321    0.71832    1.04135   1.00
C3       0.76577    0.78092    1.08354   1.00
O2       0.77712    0.81446    1.10248   1.00
C3       0.73443    0.71750    1.08227   1.00
H1       0.72279    0.69190    1.09657   1.00
C2       0.75050    0.74865    1.10439   1.00
C5       0.81114    0.67605    0.97879   1.00
H2       0.81248    0.66459    0.94838   1.00
H2       0.78385    0.66494    0.99266   1.00
C5       0.84614    0.66063    1.00122   1.00
H2       0.84539    0.67296    1.03129   1.00
H2       0.87321    0.67160    0.98691   1.00
C5       0.84595    0.61589    1.00254   1.00
H2       0.84642    0.60338    0.97260   1.00
H2       0.81960    0.60494    1.01803   1.00
H2       0.87220    0.60514    1.01830   1.00
C5       0.68073    0.69080    1.01105   1.00
C5       0.81753    0.81292    1.11070   1.00
H2       0.67721    0.71598    0.99088   1.00
H2       0.66182    0.69560    1.03712   1.00
H2       0.83454    0.81102    1.08300   1.00
H2       0.82560    0.78708    1.12895   1.00
H2       0.85044    0.83540    1.19055   1.00
H2       0.63292    0.67981    0.94250   1.00
H2       0.60613    0.67229    0.98766   1.00
C2       0.75089    0.74759    0.89605   1.00
C3       0.71993    0.76607    0.91597   1.00
O2       0.68563    0.77470    0.89674   1.00
C3       0.78196    0.73188    0.91826   1.00
H1       0.80658    0.71845    0.90385   1.00
C3a      0.72015    0.76755    0.95713   1.00
H1       0.69518    0.77981    0.97202   1.00
C3b      0.78149    0.73229    0.95922   1.00
C4       0.75040    0.75014    0.97900   1.00
O_3      0.72016    0.68556    1.02167   1.00
C5       0.68433    0.81473    0.88720   1.00
H2       0.68613    0.83331    0.91391   1.00
C5       0.64534    0.82202    0.86666   1.00
H2       0.70875    0.82275    0.86726   1.00
H2       0.62208    0.82430    0.88923   1.00
H2       0.63855    0.79560    0.84899   1.00
C5       0.64579    0.85877    0.84069   1.00
H2       0.65562    0.88430    0.85811   1.00
H2       0.61615    0.86493    0.82891   1.00
H2       0.66547    0.85492    0.81494   1.00
C5       0.66748    0.65388    0.99020   1.00
H2       0.66457    0.63012    1.01218   1.00
H2       0.69092    0.64488    0.96955   1.00
C5       0.62888    0.65999    0.96803   1.00
H2       0.61806    0.63162    0.95666   1.00
C5       0.85083    1.13227    0.82724   1.00
H2       0.85931    1.14755    0.79995   1.00
H2       0.87454    1.11099    0.83321   1.00
C5       0.84767    1.16219    0.86091   1.00
H2       0.87699    1.16890    0.87318   1.00
H2       0.82875    1.15040    0.88454   1.00
O_3      0.71721    0.98000    0.81269   1.00
C4       0.75008    1.02100    0.74956   1.00
C3c      0.78132    1.04243    0.76518   1.00
H1       0.80610    1.02725    0.77745   1.00
C3d      0.71832    1.04135    0.73321   1.00
C3       0.78092    1.08354    0.76577   1.00
O2       0.81446    1.10248    0.77712   1.00
C3       0.71750    1.08227    0.73443   1.00
H1       0.69190    1.09657    0.72279   1.00
C2       0.74865    1.10439    0.75050   1.00
C5       0.67605    0.97879    0.81114   1.00
H2       0.66459    0.94838    0.81248   1.00
H2       0.66494    0.99266    0.78385   1.00
C5       0.66063    1.00122    0.84614   1.00
H2       0.67296    1.03129    0.84539   1.00
H2       0.67160    0.98691    0.87321   1.00
C5       0.61589    1.00254    0.84595   1.00
H2       0.60338    0.97260    0.84642   1.00
H2       0.60494    1.01803    0.81960   1.00
H2       0.60514    1.01830    0.87220   1.00
C5       0.69080    1.01105    0.68073   1.00
C5       0.81292    1.11070    0.81753   1.00
H2       0.71598    0.99088    0.67721   1.00
H2       0.69560    1.03712    0.66182   1.00
H2       0.81102    1.08300    0.83454   1.00
H2       0.78708    1.12895    0.82560   1.00
H2       0.83540    1.19055    0.85044   1.00
H2       0.67981    0.94250    0.63292   1.00
H2       0.67229    0.98766    0.60613   1.00
C2       0.74759    0.89605    0.75089   1.00
C3       0.76607    0.91597    0.71993   1.00
O2       0.77470    0.89674    0.68563   1.00
C3       0.73188    0.91826    0.78196   1.00
H1       0.71845    0.90385    0.80658   1.00
C3a      0.76755    0.95713    0.72015   1.00
H1       0.77981    0.97202    0.69518   1.00
C3b      0.73229    0.95922    0.78149   1.00
C4       0.75014    0.97900    0.75040   1.00
O_3      0.68556    1.02167    0.72016   1.00
C5       0.81473    0.88720    0.68433   1.00
H2       0.83331    0.91391    0.68613   1.00
C5       0.82202    0.86666    0.64534   1.00
H2       0.82275    0.86726    0.70875   1.00
H2       0.82430    0.88923    0.62208   1.00
H2       0.79560    0.84899    0.63855   1.00
C5       0.85877    0.84069    0.64579   1.00
H2       0.88430    0.85811    0.65562   1.00
H2       0.86493    0.82891    0.61615   1.00
H2       0.85492    0.81494    0.66547   1.00
C5       0.65388    0.99020    0.66748   1.00
H2       0.63012    1.01218    0.66457   1.00
H2       0.64488    0.96955    0.69092   1.00
C5       0.65999    0.96803    0.62888   1.00
H2       0.63162    0.95666    0.61806   1.00
C5       0.36773    0.82724    0.64917   1.00
H2       0.35245    0.79995    0.64069   1.00
H2       0.38901    0.83321    0.62546   1.00
C5       0.33781    0.86091    0.65233   1.00
H2       0.33110    0.87318    0.62301   1.00
H2       0.34960    0.88454    0.67125   1.00
O_3      0.52000    0.81269    0.78279   1.00
C4       0.47900    0.74956    0.74992   1.00
C3c      0.45757    0.76518    0.71868   1.00
H1       0.47275    0.77745    0.69390   1.00
C3d      0.45865    0.73321    0.78168   1.00
C3       0.41646    0.76577    0.71908   1.00
O2       0.39752    0.77712    0.68554   1.00
C3       0.41773    0.73443    0.78250   1.00
H1       0.40343    0.72279    0.80810   1.00
C2       0.39561    0.75050    0.75135   1.00
C5       0.52121    0.81114    0.82395   1.00
H2       0.55162    0.81248    0.83541   1.00
H2       0.50734    0.78385    0.83506   1.00
C5       0.49878    0.84614    0.83937   1.00
H2       0.46871    0.84539    0.82704   1.00
H2       0.51309    0.87321    0.82840   1.00
C5       0.49746    0.84595    0.88411   1.00
H2       0.52740    0.84642    0.89662   1.00
H2       0.48197    0.81960    0.89506   1.00
H2       0.48170    0.87220    0.89486   1.00
C5       0.48895    0.68073    0.80920   1.00
C5       0.38930    0.81753    0.68708   1.00
H2       0.50912    0.67721    0.78402   1.00
H2       0.46288    0.66182    0.80440   1.00
H2       0.41700    0.83454    0.68898   1.00
H2       0.37105    0.82560    0.71292   1.00
H2       0.30945    0.85044    0.66460   1.00
H2       0.55750    0.63292    0.82019   1.00
H2       0.51234    0.60613    0.82771   1.00
C2       0.60395    0.75089    0.75241   1.00
C3       0.58403    0.71993    0.73393   1.00
O2       0.60326    0.68563    0.72530   1.00
C3       0.58174    0.78196    0.76812   1.00
H1       0.59615    0.80658    0.78155   1.00
C3a      0.54287    0.72015    0.73245   1.00
H1       0.52798    0.69518    0.72019   1.00
C3b      0.54078    0.78149    0.76771   1.00
C4       0.52100    0.75040    0.74986   1.00
O_3      0.47833    0.72016    0.81444   1.00
C5       0.61280    0.68433    0.68527   1.00
H2       0.58609    0.68613    0.66669   1.00
C5       0.63334    0.64534    0.67798   1.00
H2       0.63274    0.70875    0.67725   1.00
H2       0.61077    0.62208    0.67570   1.00
H2       0.65101    0.63855    0.70440   1.00
C5       0.65931    0.64579    0.64123   1.00
H2       0.64189    0.65562    0.61570   1.00
H2       0.67109    0.61615    0.63507   1.00
H2       0.68506    0.66547    0.64508   1.00
C5       0.50980    0.66748    0.84612   1.00
H2       0.48782    0.66457    0.86988   1.00
H2       0.53045    0.69092    0.85512   1.00
C5       0.53197    0.62888    0.84001   1.00
H2       0.54334    0.61806    0.86838   1.00
C5       1.13227    0.82724    0.85083   1.00
H2       1.14755    0.79995    0.85931   1.00
H2       1.11099    0.83321    0.87454   1.00
C5       1.16219    0.86091    0.84767   1.00
H2       1.16890    0.87318    0.87699   1.00
H2       1.15040    0.88454    0.82875   1.00
O_3      0.98000    0.81269    0.71721   1.00
C4       1.02100    0.74956    0.75008   1.00
C3c      1.04243    0.76518    0.78132   1.00
H1       1.02725    0.77745    0.80610   1.00
C3d      1.04135    0.73321    0.71832   1.00
C3       1.08354    0.76577    0.78092   1.00
O2       1.10248    0.77712    0.81446   1.00
C3       1.08227    0.73443    0.71750   1.00
H1       1.09657    0.72279    0.69190   1.00
C2       1.10439    0.75050    0.74865   1.00
C5       0.97879    0.81114    0.67605   1.00
H2       0.94838    0.81248    0.66459   1.00
H2       0.99266    0.78385    0.66494   1.00
C5       1.00122    0.84614    0.66063   1.00
H2       1.03129    0.84539    0.67296   1.00
H2       0.98691    0.87321    0.67160   1.00
C5       1.00254    0.84595    0.61589   1.00
H2       0.97260    0.84642    0.60338   1.00
H2       1.01803    0.81960    0.60494   1.00
H2       1.01830    0.87220    0.60514   1.00
C5       1.01105    0.68073    0.69080   1.00
C5       1.11070    0.81753    0.81292   1.00
H2       0.99088    0.67721    0.71598   1.00
H2       1.03712    0.66182    0.69560   1.00
H2       1.08300    0.83454    0.81102   1.00
H2       1.12895    0.82560    0.78708   1.00
H2       1.19055    0.85044    0.83540   1.00
H2       0.94250    0.63292    0.67981   1.00
H2       0.98766    0.60613    0.67229   1.00
C2       0.89605    0.75089    0.74759   1.00
C3       0.91597    0.71993    0.76607   1.00
O2       0.89674    0.68563    0.77470   1.00
C3       0.91826    0.78196    0.73188   1.00
H1       0.90385    0.80658    0.71845   1.00
C3a      0.95713    0.72015    0.76755   1.00
H1       0.97202    0.69518    0.77981   1.00
C3b      0.95922    0.78149    0.73229   1.00
C4       0.97900    0.75040    0.75014   1.00
O_3      1.02167    0.72016    0.68556   1.00
C5       0.88720    0.68433    0.81473   1.00
H2       0.91391    0.68613    0.83331   1.00
C5       0.86666    0.64534    0.82202   1.00
H2       0.86726    0.70875    0.82275   1.00
H2       0.88923    0.62208    0.82430   1.00
H2       0.84899    0.63855    0.79560   1.00
C5       0.84069    0.64579    0.85877   1.00
H2       0.85811    0.65562    0.88430   1.00
H2       0.82891    0.61615    0.86493   1.00
H2       0.81494    0.66547    0.85492   1.00
C5       0.99020    0.66748    0.65388   1.00
H2       1.01218    0.66457    0.63012   1.00
H2       0.96955    0.69092    0.64488   1.00
C5       0.96803    0.62888    0.65999   1.00
H2       0.95666    0.61806    0.63162   1.00
C5       0.64917    0.36773    0.82724   1.00
H2       0.64069    0.35245    0.79995   1.00
H2       0.62546    0.38901    0.83321   1.00
C5       0.65233    0.33781    0.86091   1.00
H2       0.62301    0.33110    0.87318   1.00
H2       0.67125    0.34960    0.88454   1.00
O_3      0.78279    0.52000    0.81269   1.00
C4       0.74992    0.47900    0.74956   1.00
C3c      0.71868    0.45757    0.76518   1.00
H1       0.69390    0.47275    0.77745   1.00
C3d      0.78168    0.45865    0.73321   1.00
C3       0.71908    0.41646    0.76577   1.00
O2       0.68554    0.39752    0.77712   1.00
C3       0.78250    0.41773    0.73443   1.00
H1       0.80810    0.40343    0.72279   1.00
C2       0.75135    0.39561    0.75050   1.00
C5       0.82395    0.52121    0.81114   1.00
H2       0.83541    0.55162    0.81248   1.00
H2       0.83506    0.50734    0.78385   1.00
C5       0.83937    0.49878    0.84614   1.00
H2       0.82704    0.46871    0.84539   1.00
H2       0.82840    0.51309    0.87321   1.00
C5       0.88411    0.49746    0.84595   1.00
H2       0.89662    0.52740    0.84642   1.00
H2       0.89506    0.48197    0.81960   1.00
H2       0.89486    0.48170    0.87220   1.00
C5       0.80920    0.48895    0.68073   1.00
C5       0.68708    0.38930    0.81753   1.00
H2       0.78402    0.50912    0.67721   1.00
H2       0.80440    0.46288    0.66182   1.00
H2       0.68898    0.41700    0.83454   1.00
H2       0.71292    0.37105    0.82560   1.00
H2       0.66460    0.30945    0.85044   1.00
H2       0.82019    0.55750    0.63292   1.00
H2       0.82771    0.51234    0.60613   1.00
C2       0.75241    0.60395    0.75089   1.00
C3       0.73393    0.58403    0.71993   1.00
O2       0.72530    0.60326    0.68563   1.00
C3       0.76812    0.58174    0.78196   1.00
H1       0.78155    0.59615    0.80658   1.00
C3a      0.73245    0.54287    0.72015   1.00
H1       0.72019    0.52798    0.69518   1.00
C3b      0.76771    0.54078    0.78149   1.00
C4       0.74986    0.52100    0.75040   1.00
O_3      0.81444    0.47833    0.72016   1.00
C5       0.68527    0.61280    0.68433   1.00
H2       0.66669    0.58609    0.68613   1.00
C5       0.67798    0.63334    0.64534   1.00
H2       0.67725    0.63274    0.70875   1.00
H2       0.67570    0.61077    0.62208   1.00
H2       0.70440    0.65101    0.63855   1.00
C5       0.64123    0.65931    0.64579   1.00
H2       0.61570    0.64189    0.65562   1.00
H2       0.63507    0.67109    0.61615   1.00
H2       0.64508    0.68506    0.66547   1.00
C5       0.84612    0.50980    0.66748   1.00
H2       0.86988    0.48782    0.66457   1.00
H2       0.85512    0.53045    0.69092   1.00
C5       0.84001    0.53197    0.62888   1.00
H2       0.86838    0.54334    0.61806   1.00
C5       0.82724    0.64917    0.36773   1.00
H2       0.79995    0.64069    0.35245   1.00
H2       0.83321    0.62546    0.38901   1.00
C5       0.86091    0.65233    0.33781   1.00
H2       0.87318    0.62301    0.33110   1.00
H2       0.88454    0.67125    0.34960   1.00
O_3      0.81269    0.78279    0.52000   1.00
C4       0.74956    0.74992    0.47900   1.00
C3c      0.76518    0.71868    0.45757   1.00
H1       0.77745    0.69390    0.47275   1.00
C3d      0.73321    0.78168    0.45865   1.00
C3       0.76577    0.71908    0.41646   1.00
O2       0.77712    0.68554    0.39752   1.00
C3       0.73443    0.78250    0.41773   1.00
H1       0.72279    0.80810    0.40343   1.00
C2       0.75050    0.75135    0.39561   1.00
C5       0.81114    0.82395    0.52121   1.00
H2       0.81248    0.83541    0.55162   1.00
H2       0.78385    0.83506    0.50734   1.00
C5       0.84614    0.83937    0.49878   1.00
H2       0.84539    0.82704    0.46871   1.00
H2       0.87321    0.82840    0.51309   1.00
C5       0.84595    0.88411    0.49746   1.00
H2       0.84642    0.89662    0.52740   1.00
H2       0.81960    0.89506    0.48197   1.00
H2       0.87220    0.89486    0.48170   1.00
C5       0.68073    0.80920    0.48895   1.00
C5       0.81753    0.68708    0.38930   1.00
H2       0.67721    0.78402    0.50912   1.00
H2       0.66182    0.80440    0.46288   1.00
H2       0.83454    0.68898    0.41700   1.00
H2       0.82560    0.71292    0.37105   1.00
H2       0.85044    0.66460    0.30945   1.00
H2       0.63292    0.82019    0.55750   1.00
H2       0.60613    0.82771    0.51234   1.00
C2       0.75089    0.75241    0.60395   1.00
C3       0.71993    0.73393    0.58403   1.00
O2       0.68563    0.72530    0.60326   1.00
C3       0.78196    0.76812    0.58174   1.00
H1       0.80658    0.78155    0.59615   1.00
C3a      0.72015    0.73245    0.54287   1.00
H1       0.69518    0.72019    0.52798   1.00
C3b      0.78149    0.76771    0.54078   1.00
C4       0.75040    0.74986    0.52100   1.00
O_3      0.72016    0.81444    0.47833   1.00
C5       0.68433    0.68527    0.61280   1.00
H2       0.68613    0.66669    0.58609   1.00
C5       0.64534    0.67798    0.63334   1.00
H2       0.70875    0.67725    0.63274   1.00
H2       0.62208    0.67570    0.61077   1.00
H2       0.63855    0.70440    0.65101   1.00
C5       0.64579    0.64123    0.65931   1.00
H2       0.65562    0.61570    0.64189   1.00
H2       0.61615    0.63507    0.67109   1.00
H2       0.66547    0.64508    0.68506   1.00
C5       0.66748    0.84612    0.50980   1.00
H2       0.66457    0.86988    0.48782   1.00
H2       0.69092    0.85512    0.53045   1.00
C5       0.62888    0.84001    0.53197   1.00
H2       0.61806    0.86838    0.54334   1.00
C5       0.32724    0.35083    1.13227   1.00
H2       0.29995    0.35931    1.14755   1.00
H2       0.33321    0.37454    1.11099   1.00
C5       0.36091    0.34767    1.16219   1.00
H2       0.37318    0.37699    1.16890   1.00
H2       0.38454    0.32875    1.15040   1.00
O_3      0.31269    0.21721    0.98000   1.00
C4       0.24956    0.25008    1.02100   1.00
C3c      0.26518    0.28132    1.04243   1.00
H1       0.27745    0.30610    1.02725   1.00
C3d      0.23321    0.21832    1.04135   1.00
C3       0.26577    0.28092    1.08354   1.00
O2       0.27712    0.31446    1.10248   1.00
C3       0.23443    0.21750    1.08227   1.00
H1       0.22279    0.19190    1.09657   1.00
C2       0.25050    0.24865    1.10439   1.00
C5       0.31114    0.17605    0.97879   1.00
H2       0.31248    0.16459    0.94838   1.00
H2       0.28385    0.16494    0.99266   1.00
C5       0.34614    0.16063    1.00122   1.00
H2       0.34539    0.17296    1.03129   1.00
H2       0.37321    0.17160    0.98691   1.00
C5       0.34595    0.11589    1.00254   1.00
H2       0.34642    0.10338    0.97260   1.00
H2       0.31960    0.10494    1.01803   1.00
H2       0.37220    0.10514    1.01830   1.00
C5       0.18073    0.19080    1.01105   1.00
C5       0.31753    0.31292    1.11070   1.00
H2       0.17721    0.21598    0.99088   1.00
H2       0.16182    0.19560    1.03712   1.00
H2       0.33454    0.31102    1.08300   1.00
H2       0.32560    0.28708    1.12895   1.00
H2       0.35044    0.33540    1.19055   1.00
H2       0.13292    0.17981    0.94250   1.00
H2       0.10613    0.17229    0.98766   1.00
C2       0.25089    0.24759    0.89605   1.00
C3       0.21993    0.26607    0.91597   1.00
O2       0.18563    0.27470    0.89674   1.00
C3       0.28196    0.23188    0.91826   1.00
H1       0.30658    0.21845    0.90385   1.00
C3a      0.22015    0.26755    0.95713   1.00
H1       0.19518    0.27981    0.97202   1.00
C3b      0.28149    0.23229    0.95922   1.00
C4       0.25040    0.25014    0.97900   1.00
O_3      0.22016    0.18556    1.02167   1.00
C5       0.18433    0.31473    0.88720   1.00
H2       0.18613    0.33331    0.91391   1.00
C5       0.14534    0.32202    0.86666   1.00
H2       0.20875    0.32275    0.86726   1.00
H2       0.12208    0.32430    0.88923   1.00
H2       0.13855    0.29560    0.84899   1.00
C5       0.14579    0.35877    0.84069   1.00
H2       0.15562    0.38430    0.85811   1.00
H2       0.11615    0.36493    0.82891   1.00
H2       0.16547    0.35492    0.81494   1.00
C5       0.16748    0.15388    0.99020   1.00
H2       0.16457    0.13012    1.01218   1.00
H2       0.19092    0.14488    0.96955   1.00
C5       0.12888    0.15999    0.96803   1.00
H2       0.11806    0.13162    0.95666   1.00
C5       0.35083    0.63227    0.82724   1.00
H2       0.35931    0.64755    0.79995   1.00
H2       0.37454    0.61099    0.83321   1.00
C5       0.34767    0.66219    0.86091   1.00
H2       0.37699    0.66890    0.87318   1.00
H2       0.32875    0.65040    0.88454   1.00
O_3      0.21721    0.48000    0.81269   1.00
C4       0.25008    0.52100    0.74956   1.00
C3c      0.28132    0.54243    0.76518   1.00
H1       0.30610    0.52725    0.77745   1.00
C3d      0.21832    0.54135    0.73321   1.00
C3       0.28092    0.58354    0.76577   1.00
O2       0.31446    0.60248    0.77712   1.00
C3       0.21750    0.58227    0.73443   1.00
H1       0.19190    0.59657    0.72279   1.00
C2       0.24865    0.60439    0.75050   1.00
C5       0.17605    0.47879    0.81114   1.00
H2       0.16459    0.44838    0.81248   1.00
H2       0.16494    0.49266    0.78385   1.00
C5       0.16063    0.50122    0.84614   1.00
H2       0.17296    0.53129    0.84539   1.00
H2       0.17160    0.48691    0.87321   1.00
C5       0.11589    0.50254    0.84595   1.00
H2       0.10338    0.47260    0.84642   1.00
H2       0.10494    0.51803    0.81960   1.00
H2       0.10514    0.51830    0.87220   1.00
C5       0.19080    0.51105    0.68073   1.00
C5       0.31292    0.61070    0.81753   1.00
H2       0.21598    0.49088    0.67721   1.00
H2       0.19560    0.53712    0.66182   1.00
H2       0.31102    0.58300    0.83454   1.00
H2       0.28708    0.62895    0.82560   1.00
H2       0.33540    0.69055    0.85044   1.00
H2       0.17981    0.44250    0.63292   1.00
H2       0.17229    0.48766    0.60613   1.00
C2       0.24759    0.39605    0.75089   1.00
C3       0.26607    0.41597    0.71993   1.00
O2       0.27470    0.39674    0.68563   1.00
C3       0.23188    0.41826    0.78196   1.00
H1       0.21845    0.40385    0.80658   1.00
C3a      0.26755    0.45713    0.72015   1.00
H1       0.27981    0.47202    0.69518   1.00
C3b      0.23229    0.45922    0.78149   1.00
C4       0.25014    0.47900    0.75040   1.00
O_3      0.18556    0.52167    0.72016   1.00
C5       0.31473    0.38720    0.68433   1.00
H2       0.33331    0.41391    0.68613   1.00
C5       0.32202    0.36666    0.64534   1.00
H2       0.32275    0.36726    0.70875   1.00
H2       0.32430    0.38923    0.62208   1.00
H2       0.29560    0.34899    0.63855   1.00
C5       0.35877    0.34069    0.64579   1.00
H2       0.38430    0.35811    0.65562   1.00
H2       0.36493    0.32891    0.61615   1.00
H2       0.35492    0.31494    0.66547   1.00
C5       0.15388    0.49020    0.66748   1.00
H2       0.13012    0.51218    0.66457   1.00
H2       0.14488    0.46955    0.69092   1.00
C5       0.15999    0.46803    0.62888   1.00
H2       0.13162    0.45666    0.61806   1.00
C5       -0.13227   0.32724    0.64917   1.00
H2       -0.14755   0.29995    0.64069   1.00
H2       -0.11099   0.33321    0.62546   1.00
C5       -0.16219   0.36091    0.65233   1.00
H2       -0.16890   0.37318    0.62301   1.00
H2       -0.15040   0.38454    0.67125   1.00
O_3      0.02000    0.31269    0.78279   1.00
C4       -0.02100   0.24956    0.74992   1.00
C3c      -0.04243   0.26518    0.71868   1.00
H1       -0.02725   0.27745    0.69390   1.00
C3d      -0.04135   0.23321    0.78168   1.00
C3       -0.08354   0.26577    0.71908   1.00
O2       -0.10248   0.27712    0.68554   1.00
C3       -0.08227   0.23443    0.78250   1.00
H1       -0.09657   0.22279    0.80810   1.00
C2       -0.10439   0.25050    0.75135   1.00
C5       0.02121    0.31114    0.82395   1.00
H2       0.05162    0.31248    0.83541   1.00
H2       0.00734    0.28385    0.83506   1.00
C5       -0.00122   0.34614    0.83937   1.00
H2       -0.03129   0.34539    0.82704   1.00
H2       0.01309    0.37321    0.82840   1.00
C5       -0.00254   0.34595    0.88411   1.00
H2       0.02740    0.34642    0.89662   1.00
H2       -0.01803   0.31960    0.89506   1.00
H2       -0.01830   0.37220    0.89486   1.00
C5       -0.01105   0.18073    0.80920   1.00
C5       -0.11070   0.31753    0.68708   1.00
H2       0.00912    0.17721    0.78402   1.00
H2       -0.03712   0.16182    0.80440   1.00
H2       -0.08300   0.33454    0.68898   1.00
H2       -0.12895   0.32560    0.71292   1.00
H2       -0.19055   0.35044    0.66460   1.00
H2       0.05750    0.13292    0.82019   1.00
H2       0.01234    0.10613    0.82771   1.00
C2       0.10395    0.25089    0.75241   1.00
C3       0.08403    0.21993    0.73393   1.00
O2       0.10326    0.18563    0.72530   1.00
C3       0.08174    0.28196    0.76812   1.00
H1       0.09615    0.30658    0.78155   1.00
C3a      0.04287    0.22015    0.73245   1.00
H1       0.02798    0.19518    0.72019   1.00
C3b      0.04078    0.28149    0.76771   1.00
C4       0.02100    0.25040    0.74986   1.00
O_3      -0.02167   0.22016    0.81444   1.00
C5       0.11280    0.18433    0.68527   1.00
H2       0.08609    0.18613    0.66669   1.00
C5       0.13334    0.14534    0.67798   1.00
H2       0.13274    0.20875    0.67725   1.00
H2       0.11077    0.12208    0.67570   1.00
H2       0.15101    0.13855    0.70440   1.00
C5       0.15931    0.14579    0.64123   1.00
H2       0.14189    0.15562    0.61570   1.00
H2       0.17109    0.11615    0.63507   1.00
H2       0.18506    0.16547    0.64508   1.00
C5       0.00980    0.16748    0.84612   1.00
H2       -0.01218   0.16457    0.86988   1.00
H2       0.03045    0.19092    0.85512   1.00
C5       0.03197    0.12888    0.84001   1.00
H2       0.04334    0.11806    0.86838   1.00
C5       0.63227    0.32724    0.85083   1.00
H2       0.64755    0.29995    0.85931   1.00
H2       0.61099    0.33321    0.87454   1.00
C5       0.66219    0.36091    0.84767   1.00
H2       0.66890    0.37318    0.87699   1.00
H2       0.65040    0.38454    0.82875   1.00
O_3      0.48000    0.31269    0.71721   1.00
C4       0.52100    0.24956    0.75008   1.00
C3c      0.54243    0.26518    0.78132   1.00
H1       0.52725    0.27745    0.80610   1.00
C3d      0.54135    0.23321    0.71832   1.00
C3       0.58354    0.26577    0.78092   1.00
O2       0.60248    0.27712    0.81446   1.00
C3       0.58227    0.23443    0.71750   1.00
H1       0.59657    0.22279    0.69190   1.00
C2       0.60439    0.25050    0.74865   1.00
C5       0.47879    0.31114    0.67605   1.00
H2       0.44838    0.31248    0.66459   1.00
H2       0.49266    0.28385    0.66494   1.00
C5       0.50122    0.34614    0.66063   1.00
H2       0.53129    0.34539    0.67296   1.00
H2       0.48691    0.37321    0.67160   1.00
C5       0.50254    0.34595    0.61589   1.00
H2       0.47260    0.34642    0.60338   1.00
H2       0.51803    0.31960    0.60494   1.00
H2       0.51830    0.37220    0.60514   1.00
C5       0.51105    0.18073    0.69080   1.00
C5       0.61070    0.31753    0.81292   1.00
H2       0.49088    0.17721    0.71598   1.00
H2       0.53712    0.16182    0.69560   1.00
H2       0.58300    0.33454    0.81102   1.00
H2       0.62895    0.32560    0.78708   1.00
H2       0.69055    0.35044    0.83540   1.00
H2       0.44250    0.13292    0.67981   1.00
H2       0.48766    0.10613    0.67229   1.00
C2       0.39605    0.25089    0.74759   1.00
C3       0.41597    0.21993    0.76607   1.00
O2       0.39674    0.18563    0.77470   1.00
C3       0.41826    0.28196    0.73188   1.00
H1       0.40385    0.30658    0.71845   1.00
C3a      0.45713    0.22015    0.76755   1.00
H1       0.47202    0.19518    0.77981   1.00
C3b      0.45922    0.28149    0.73229   1.00
C4       0.47900    0.25040    0.75014   1.00
O_3      0.52167    0.22016    0.68556   1.00
C5       0.38720    0.18433    0.81473   1.00
H2       0.41391    0.18613    0.83331   1.00
C5       0.36666    0.14534    0.82202   1.00
H2       0.36726    0.20875    0.82275   1.00
H2       0.38923    0.12208    0.82430   1.00
H2       0.34899    0.13855    0.79560   1.00
C5       0.34069    0.14579    0.85877   1.00
H2       0.35811    0.15562    0.88430   1.00
H2       0.32891    0.11615    0.86493   1.00
H2       0.31494    0.16547    0.85492   1.00
C5       0.49020    0.16748    0.65388   1.00
H2       0.51218    0.16457    0.63012   1.00
H2       0.46955    0.19092    0.64488   1.00
C5       0.46803    0.12888    0.65999   1.00
H2       0.45666    0.11806    0.63162   1.00
C5       0.14917    -0.13227   0.82724   1.00
H2       0.14069    -0.14755   0.79995   1.00
H2       0.12546    -0.11099   0.83321   1.00
C5       0.15233    -0.16219   0.86091   1.00
H2       0.12301    -0.16890   0.87318   1.00
H2       0.17125    -0.15040   0.88454   1.00
O_3      0.28279    0.02000    0.81269   1.00
C4       0.24992    -0.02100   0.74956   1.00
C3c      0.21868    -0.04243   0.76518   1.00
H1       0.19390    -0.02725   0.77745   1.00
C3d      0.28168    -0.04135   0.73321   1.00
C3       0.21908    -0.08354   0.76577   1.00
O2       0.18554    -0.10248   0.77712   1.00
C3       0.28250    -0.08227   0.73443   1.00
H1       0.30810    -0.09657   0.72279   1.00
C2       0.25135    -0.10439   0.75050   1.00
C5       0.32395    0.02121    0.81114   1.00
H2       0.33541    0.05162    0.81248   1.00
H2       0.33506    0.00734    0.78385   1.00
C5       0.33937    -0.00122   0.84614   1.00
H2       0.32704    -0.03129   0.84539   1.00
H2       0.32840    0.01309    0.87321   1.00
C5       0.38411    -0.00254   0.84595   1.00
H2       0.39662    0.02740    0.84642   1.00
H2       0.39506    -0.01803   0.81960   1.00
H2       0.39486    -0.01830   0.87220   1.00
C5       0.30920    -0.01105   0.68073   1.00
C5       0.18708    -0.11070   0.81753   1.00
H2       0.28402    0.00912    0.67721   1.00
H2       0.30440    -0.03712   0.66182   1.00
H2       0.18898    -0.08300   0.83454   1.00
H2       0.21292    -0.12895   0.82560   1.00
H2       0.16460    -0.19055   0.85044   1.00
H2       0.32019    0.05750    0.63292   1.00
H2       0.32771    0.01234    0.60613   1.00
C2       0.25241    0.10395    0.75089   1.00
C3       0.23393    0.08403    0.71993   1.00
O2       0.22530    0.10326    0.68563   1.00
C3       0.26812    0.08174    0.78196   1.00
H1       0.28155    0.09615    0.80658   1.00
C3a      0.23245    0.04287    0.72015   1.00
H1       0.22019    0.02798    0.69518   1.00
C3b      0.26771    0.04078    0.78149   1.00
C4       0.24986    0.02100    0.75040   1.00
O_3      0.31444    -0.02167   0.72016   1.00
C5       0.18527    0.11280    0.68433   1.00
H2       0.16669    0.08609    0.68613   1.00
C5       0.17798    0.13334    0.64534   1.00
H2       0.17725    0.13274    0.70875   1.00
H2       0.17570    0.11077    0.62208   1.00
H2       0.20440    0.15101    0.63855   1.00
C5       0.14123    0.15931    0.64579   1.00
H2       0.11570    0.14189    0.65562   1.00
H2       0.13507    0.17109    0.61615   1.00
H2       0.14508    0.18506    0.66547   1.00
C5       0.34612    0.00980    0.66748   1.00
H2       0.36988    -0.01218   0.66457   1.00
H2       0.35512    0.03045    0.69092   1.00
C5       0.34001    0.03197    0.62888   1.00
H2       0.36838    0.04334    0.61806   1.00
C5       0.32724    0.14917    0.36773   1.00
H2       0.29995    0.14069    0.35245   1.00
H2       0.33321    0.12546    0.38901   1.00
C5       0.36091    0.15233    0.33781   1.00
H2       0.37318    0.12301    0.33110   1.00
H2       0.38454    0.17125    0.34960   1.00
O_3      0.31269    0.28279    0.52000   1.00
C4       0.24956    0.24992    0.47900   1.00
C3c      0.26518    0.21868    0.45757   1.00
H1       0.27745    0.19390    0.47275   1.00
C3d      0.23321    0.28168    0.45865   1.00
C3       0.26577    0.21908    0.41646   1.00
O2       0.27712    0.18554    0.39752   1.00
C3       0.23443    0.28250    0.41773   1.00
H1       0.22279    0.30810    0.40343   1.00
C2       0.25050    0.25135    0.39561   1.00
C5       0.31114    0.32395    0.52121   1.00
H2       0.31248    0.33541    0.55162   1.00
H2       0.28385    0.33506    0.50734   1.00
C5       0.34614    0.33937    0.49878   1.00
H2       0.34539    0.32704    0.46871   1.00
H2       0.37321    0.32840    0.51309   1.00
C5       0.34595    0.38411    0.49746   1.00
H2       0.34642    0.39662    0.52740   1.00
H2       0.31960    0.39506    0.48197   1.00
H2       0.37220    0.39486    0.48170   1.00
C5       0.18073    0.30920    0.48895   1.00
C5       0.31753    0.18708    0.38930   1.00
H2       0.17721    0.28402    0.50912   1.00
H2       0.16182    0.30440    0.46288   1.00
H2       0.33454    0.18898    0.41700   1.00
H2       0.32560    0.21292    0.37105   1.00
H2       0.35044    0.16460    0.30945   1.00
H2       0.13292    0.32019    0.55750   1.00
H2       0.10613    0.32771    0.51234   1.00
C2       0.25089    0.25241    0.60395   1.00
C3       0.21993    0.23393    0.58403   1.00
O2       0.18563    0.22530    0.60326   1.00
C3       0.28196    0.26812    0.58174   1.00
H1       0.30658    0.28155    0.59615   1.00
C3a      0.22015    0.23245    0.54287   1.00
H1       0.19518    0.22019    0.52798   1.00
C3b      0.28149    0.26771    0.54078   1.00
C4       0.25040    0.24986    0.52100   1.00
O_3      0.22016    0.31444    0.47833   1.00
C5       0.18433    0.18527    0.61280   1.00
H2       0.18613    0.16669    0.58609   1.00
C5       0.14534    0.17798    0.63334   1.00
H2       0.20875    0.17725    0.63274   1.00
H2       0.12208    0.17570    0.61077   1.00
H2       0.13855    0.20440    0.65101   1.00
C5       0.14579    0.14123    0.65931   1.00
H2       0.15562    0.11570    0.64189   1.00
H2       0.11615    0.13507    0.67109   1.00
H2       0.16547    0.14508    0.68506   1.00
C5       0.16748    0.34612    0.50980   1.00
H2       0.16457    0.36988    0.48782   1.00
H2       0.19092    0.35512    0.53045   1.00
C5       0.12888    0.34001    0.53197   1.00
H2       0.11806    0.36838    0.54334   1.00
C5       0.32724    0.85083    0.63227   1.00
H2       0.29995    0.85931    0.64755   1.00
H2       0.33321    0.87454    0.61099   1.00
C5       0.36091    0.84767    0.66219   1.00
H2       0.37318    0.87699    0.66890   1.00
H2       0.38454    0.82875    0.65040   1.00
O_3      0.31269    0.71721    0.48000   1.00
C4       0.24956    0.75008    0.52100   1.00
C3c      0.26518    0.78132    0.54243   1.00
H1       0.27745    0.80610    0.52725   1.00
C3d      0.23321    0.71832    0.54135   1.00
C3       0.26577    0.78092    0.58354   1.00
O2       0.27712    0.81446    0.60248   1.00
C3       0.23443    0.71750    0.58227   1.00
H1       0.22279    0.69190    0.59657   1.00
C2       0.25050    0.74865    0.60439   1.00
C5       0.31114    0.67605    0.47879   1.00
H2       0.31248    0.66459    0.44838   1.00
H2       0.28385    0.66494    0.49266   1.00
C5       0.34614    0.66063    0.50122   1.00
H2       0.34539    0.67296    0.53129   1.00
H2       0.37321    0.67160    0.48691   1.00
C5       0.34595    0.61589    0.50254   1.00
H2       0.34642    0.60338    0.47260   1.00
H2       0.31960    0.60494    0.51803   1.00
H2       0.37220    0.60514    0.51830   1.00
C5       0.18073    0.69080    0.51105   1.00
C5       0.31753    0.81292    0.61070   1.00
H2       0.17721    0.71598    0.49088   1.00
H2       0.16182    0.69560    0.53712   1.00
H2       0.33454    0.81102    0.58300   1.00
H2       0.32560    0.78708    0.62895   1.00
H2       0.35044    0.83540    0.69055   1.00
H2       0.13292    0.67981    0.44250   1.00
H2       0.10613    0.67229    0.48766   1.00
C2       0.25089    0.74759    0.39605   1.00
C3       0.21993    0.76607    0.41597   1.00
O2       0.18563    0.77470    0.39674   1.00
C3       0.28196    0.73188    0.41826   1.00
H1       0.30658    0.71845    0.40385   1.00
C3a      0.22015    0.76755    0.45713   1.00
H1       0.19518    0.77981    0.47202   1.00
C3b      0.28149    0.73229    0.45922   1.00
C4       0.25040    0.75014    0.47900   1.00
O_3      0.22016    0.68556    0.52167   1.00
C5       0.18433    0.81473    0.38720   1.00
H2       0.18613    0.83331    0.41391   1.00
C5       0.14534    0.82202    0.36666   1.00
H2       0.20875    0.82275    0.36726   1.00
H2       0.12208    0.82430    0.38923   1.00
H2       0.13855    0.79560    0.34899   1.00
C5       0.14579    0.85877    0.34069   1.00
H2       0.15562    0.88430    0.35811   1.00
H2       0.11615    0.86493    0.32891   1.00
H2       0.16547    0.85492    0.31494   1.00
C5       0.16748    0.65388    0.49020   1.00
H2       0.16457    0.63012    0.51218   1.00
H2       0.19092    0.64488    0.46955   1.00
C5       0.12888    0.65999    0.46803   1.00
H2       0.11806    0.63162    0.45666   1.00
C5       0.35083    1.13227    0.32724   1.00
H2       0.35931    1.14755    0.29995   1.00
H2       0.37454    1.11099    0.33321   1.00
C5       0.34767    1.16219    0.36091   1.00
H2       0.37699    1.16890    0.37318   1.00
H2       0.32875    1.15040    0.38454   1.00
O_3      0.21721    0.98000    0.31269   1.00
C4       0.25008    1.02100    0.24956   1.00
C3c      0.28132    1.04243    0.26518   1.00
H1       0.30610    1.02725    0.27745   1.00
C3d      0.21832    1.04135    0.23321   1.00
C3       0.28092    1.08354    0.26577   1.00
O2       0.31446    1.10248    0.27712   1.00
C3       0.21750    1.08227    0.23443   1.00
H1       0.19190    1.09657    0.22279   1.00
C2       0.24865    1.10439    0.25050   1.00
C5       0.17605    0.97879    0.31114   1.00
H2       0.16459    0.94838    0.31248   1.00
H2       0.16494    0.99266    0.28385   1.00
C5       0.16063    1.00122    0.34614   1.00
H2       0.17296    1.03129    0.34539   1.00
H2       0.17160    0.98691    0.37321   1.00
C5       0.11589    1.00254    0.34595   1.00
H2       0.10338    0.97260    0.34642   1.00
H2       0.10494    1.01803    0.31960   1.00
H2       0.10514    1.01830    0.37220   1.00
C5       0.19080    1.01105    0.18073   1.00
C5       0.31292    1.11070    0.31753   1.00
H2       0.21598    0.99088    0.17721   1.00
H2       0.19560    1.03712    0.16182   1.00
H2       0.31102    1.08300    0.33454   1.00
H2       0.28708    1.12895    0.32560   1.00
H2       0.33540    1.19055    0.35044   1.00
H2       0.17981    0.94250    0.13292   1.00
H2       0.17229    0.98766    0.10613   1.00
C2       0.24759    0.89605    0.25089   1.00
C3       0.26607    0.91597    0.21993   1.00
O2       0.27470    0.89674    0.18563   1.00
C3       0.23188    0.91826    0.28196   1.00
H1       0.21845    0.90385    0.30658   1.00
C3a      0.26755    0.95713    0.22015   1.00
H1       0.27981    0.97202    0.19518   1.00
C3b      0.23229    0.95922    0.28149   1.00
C4       0.25014    0.97900    0.25040   1.00
O_3      0.18556    1.02167    0.22016   1.00
C5       0.31473    0.88720    0.18433   1.00
H2       0.33331    0.91391    0.18613   1.00
C5       0.32202    0.86666    0.14534   1.00
H2       0.32275    0.86726    0.20875   1.00
H2       0.32430    0.88923    0.12208   1.00
H2       0.29560    0.84899    0.13855   1.00
C5       0.35877    0.84069    0.14579   1.00
H2       0.38430    0.85811    0.15562   1.00
H2       0.36493    0.82891    0.11615   1.00
H2       0.35492    0.81494    0.16547   1.00
C5       0.15388    0.99020    0.16748   1.00
H2       0.13012    1.01218    0.16457   1.00
H2       0.14488    0.96955    0.19092   1.00
C5       0.15999    0.96803    0.12888   1.00
H2       0.13162    0.95666    0.11806   1.00
C5       -0.13227   0.82724    0.14917   1.00
H2       -0.14755   0.79995    0.14069   1.00
H2       -0.11099   0.83321    0.12546   1.00
C5       -0.16219   0.86091    0.15233   1.00
H2       -0.16890   0.87318    0.12301   1.00
H2       -0.15040   0.88454    0.17125   1.00
O_3      0.02000    0.81269    0.28279   1.00
C4       -0.02100   0.74956    0.24992   1.00
C3c      -0.04243   0.76518    0.21868   1.00
H1       -0.02725   0.77745    0.19390   1.00
C3d      -0.04135   0.73321    0.28168   1.00
C3       -0.08354   0.76577    0.21908   1.00
O2       -0.10248   0.77712    0.18554   1.00
C3       -0.08227   0.73443    0.28250   1.00
H1       -0.09657   0.72279    0.30810   1.00
C2       -0.10439   0.75050    0.25135   1.00
C5       0.02121    0.81114    0.32395   1.00
H2       0.05162    0.81248    0.33541   1.00
H2       0.00734    0.78385    0.33506   1.00
C5       -0.00122   0.84614    0.33937   1.00
H2       -0.03129   0.84539    0.32704   1.00
H2       0.01309    0.87321    0.32840   1.00
C5       -0.00254   0.84595    0.38411   1.00
H2       0.02740    0.84642    0.39662   1.00
H2       -0.01803   0.81960    0.39506   1.00
H2       -0.01830   0.87220    0.39486   1.00
C5       -0.01105   0.68073    0.30920   1.00
C5       -0.11070   0.81753    0.18708   1.00
H2       0.00912    0.67721    0.28402   1.00
H2       -0.03712   0.66182    0.30440   1.00
H2       -0.08300   0.83454    0.18898   1.00
H2       -0.12895   0.82560    0.21292   1.00
H2       -0.19055   0.85044    0.16460   1.00
H2       0.05750    0.63292    0.32019   1.00
H2       0.01234    0.60613    0.32771   1.00
C2       0.10395    0.75089    0.25241   1.00
C3       0.08403    0.71993    0.23393   1.00
O2       0.10326    0.68563    0.22530   1.00
C3       0.08174    0.78196    0.26812   1.00
H1       0.09615    0.80658    0.28155   1.00
C3a      0.04287    0.72015    0.23245   1.00
H1       0.02798    0.69518    0.22019   1.00
C3b      0.04078    0.78149    0.26771   1.00
C4       0.02100    0.75040    0.24986   1.00
O_3      -0.02167   0.72016    0.31444   1.00
C5       0.11280    0.68433    0.18527   1.00
H2       0.08609    0.68613    0.16669   1.00
C5       0.13334    0.64534    0.17798   1.00
H2       0.13274    0.70875    0.17725   1.00
H2       0.11077    0.62208    0.17570   1.00
H2       0.15101    0.63855    0.20440   1.00
C5       0.15931    0.64579    0.14123   1.00
H2       0.14189    0.65562    0.11570   1.00
H2       0.17109    0.61615    0.13507   1.00
H2       0.18506    0.66547    0.14508   1.00
C5       0.00980    0.66748    0.34612   1.00
H2       -0.01218   0.66457    0.36988   1.00
H2       0.03045    0.69092    0.35512   1.00
C5       0.03197    0.62888    0.34001   1.00
H2       0.04334    0.61806    0.36838   1.00
C5       0.63227    0.82724    0.35083   1.00
H2       0.64755    0.79995    0.35931   1.00
H2       0.61099    0.83321    0.37454   1.00
C5       0.66219    0.86091    0.34767   1.00
H2       0.66890    0.87318    0.37699   1.00
H2       0.65040    0.88454    0.32875   1.00
O_3      0.48000    0.81269    0.21721   1.00
C4       0.52100    0.74956    0.25008   1.00
C3c      0.54243    0.76518    0.28132   1.00
H1       0.52725    0.77745    0.30610   1.00
C3d      0.54135    0.73321    0.21832   1.00
C3       0.58354    0.76577    0.28092   1.00
O2       0.60248    0.77712    0.31446   1.00
C3       0.58227    0.73443    0.21750   1.00
H1       0.59657    0.72279    0.19190   1.00
C2       0.60439    0.75050    0.24865   1.00
C5       0.47879    0.81114    0.17605   1.00
H2       0.44838    0.81248    0.16459   1.00
H2       0.49266    0.78385    0.16494   1.00
C5       0.50122    0.84614    0.16063   1.00
H2       0.53129    0.84539    0.17296   1.00
H2       0.48691    0.87321    0.17160   1.00
C5       0.50254    0.84595    0.11589   1.00
H2       0.47260    0.84642    0.10338   1.00
H2       0.51803    0.81960    0.10494   1.00
H2       0.51830    0.87220    0.10514   1.00
C5       0.51105    0.68073    0.19080   1.00
C5       0.61070    0.81753    0.31292   1.00
H2       0.49088    0.67721    0.21598   1.00
H2       0.53712    0.66182    0.19560   1.00
H2       0.58300    0.83454    0.31102   1.00
H2       0.62895    0.82560    0.28708   1.00
H2       0.69055    0.85044    0.33540   1.00
H2       0.44250    0.63292    0.17981   1.00
H2       0.48766    0.60613    0.17229   1.00
C2       0.39605    0.75089    0.24759   1.00
C3       0.41597    0.71993    0.26607   1.00
O2       0.39674    0.68563    0.27470   1.00
C3       0.41826    0.78196    0.23188   1.00
H1       0.40385    0.80658    0.21845   1.00
C3a      0.45713    0.72015    0.26755   1.00
H1       0.47202    0.69518    0.27981   1.00
C3b      0.45922    0.78149    0.23229   1.00
C4       0.47900    0.75040    0.25014   1.00
O_3      0.52167    0.72016    0.18556   1.00
C5       0.38720    0.68433    0.31473   1.00
H2       0.41391    0.68613    0.33331   1.00
C5       0.36666    0.64534    0.32202   1.00
H2       0.36726    0.70875    0.32275   1.00
H2       0.38923    0.62208    0.32430   1.00
H2       0.34899    0.63855    0.29560   1.00
C5       0.34069    0.64579    0.35877   1.00
H2       0.35811    0.65562    0.38430   1.00
H2       0.32891    0.61615    0.36493   1.00
H2       0.31494    0.66547    0.35492   1.00
C5       0.49020    0.66748    0.15388   1.00
H2       0.51218    0.66457    0.13012   1.00
H2       0.46955    0.69092    0.14488   1.00
C5       0.46803    0.62888    0.15999   1.00
H2       0.45666    0.61806    0.13162   1.00
C5       0.14917    0.36773    0.32724   1.00
H2       0.14069    0.35245    0.29995   1.00
H2       0.12546    0.38901    0.33321   1.00
C5       0.15233    0.33781    0.36091   1.00
H2       0.12301    0.33110    0.37318   1.00
H2       0.17125    0.34960    0.38454   1.00
O_3      0.28279    0.52000    0.31269   1.00
C4       0.24992    0.47900    0.24956   1.00
C3c      0.21868    0.45757    0.26518   1.00
H1       0.19390    0.47275    0.27745   1.00
C3d      0.28168    0.45865    0.23321   1.00
C3       0.21908    0.41646    0.26577   1.00
O2       0.18554    0.39752    0.27712   1.00
C3       0.28250    0.41773    0.23443   1.00
H1       0.30810    0.40343    0.22279   1.00
C2       0.25135    0.39561    0.25050   1.00
C5       0.32395    0.52121    0.31114   1.00
H2       0.33541    0.55162    0.31248   1.00
H2       0.33506    0.50734    0.28385   1.00
C5       0.33937    0.49878    0.34614   1.00
H2       0.32704    0.46871    0.34539   1.00
H2       0.32840    0.51309    0.37321   1.00
C5       0.38411    0.49746    0.34595   1.00
H2       0.39662    0.52740    0.34642   1.00
H2       0.39506    0.48197    0.31960   1.00
H2       0.39486    0.48170    0.37220   1.00
C5       0.30920    0.48895    0.18073   1.00
C5       0.18708    0.38930    0.31753   1.00
H2       0.28402    0.50912    0.17721   1.00
H2       0.30440    0.46288    0.16182   1.00
H2       0.18898    0.41700    0.33454   1.00
H2       0.21292    0.37105    0.32560   1.00
H2       0.16460    0.30945    0.35044   1.00
H2       0.32019    0.55750    0.13292   1.00
H2       0.32771    0.51234    0.10613   1.00
C2       0.25241    0.60395    0.25089   1.00
C3       0.23393    0.58403    0.21993   1.00
O2       0.22530    0.60326    0.18563   1.00
C3       0.26812    0.58174    0.28196   1.00
H1       0.28155    0.59615    0.30658   1.00
C3a      0.23245    0.54287    0.22015   1.00
H1       0.22019    0.52798    0.19518   1.00
C3b      0.26771    0.54078    0.28149   1.00
C4       0.24986    0.52100    0.25040   1.00
O_3      0.31444    0.47833    0.22016   1.00
C5       0.18527    0.61280    0.18433   1.00
H2       0.16669    0.58609    0.18613   1.00
C5       0.17798    0.63334    0.14534   1.00
H2       0.17725    0.63274    0.20875   1.00
H2       0.17570    0.61077    0.12208   1.00
H2       0.20440    0.65101    0.13855   1.00
C5       0.14123    0.65931    0.14579   1.00
H2       0.11570    0.64189    0.15562   1.00
H2       0.13507    0.67109    0.11615   1.00
H2       0.14508    0.68506    0.16547   1.00
C5       0.34612    0.50980    0.16748   1.00
H2       0.36988    0.48782    0.16457   1.00
H2       0.35512    0.53045    0.19092   1.00
C5       0.34001    0.53197    0.12888   1.00
H2       0.36838    0.54334    0.11806   1.00
C5       0.32724    0.64917    -0.13227   1.00
H2       0.29995    0.64069    -0.14755   1.00
H2       0.33321    0.62546    -0.11099   1.00
C5       0.36091    0.65233    -0.16219   1.00
H2       0.37318    0.62301    -0.16890   1.00
H2       0.38454    0.67125    -0.15040   1.00
O_3      0.31269    0.78279    0.02000   1.00
C4       0.24956    0.74992    -0.02100   1.00
C3c      0.26518    0.71868    -0.04243   1.00
H1       0.27745    0.69390    -0.02725   1.00
C3d      0.23321    0.78168    -0.04135   1.00
C3       0.26577    0.71908    -0.08354   1.00
O2       0.27712    0.68554    -0.10248   1.00
C3       0.23443    0.78250    -0.08227   1.00
H1       0.22279    0.80810    -0.09657   1.00
C2       0.25050    0.75135    -0.10439   1.00
C5       0.31114    0.82395    0.02121   1.00
H2       0.31248    0.83541    0.05162   1.00
H2       0.28385    0.83506    0.00734   1.00
C5       0.34614    0.83937    -0.00122   1.00
H2       0.34539    0.82704    -0.03129   1.00
H2       0.37321    0.82840    0.01309   1.00
C5       0.34595    0.88411    -0.00254   1.00
H2       0.34642    0.89662    0.02740   1.00
H2       0.31960    0.89506    -0.01803   1.00
H2       0.37220    0.89486    -0.01830   1.00
C5       0.18073    0.80920    -0.01105   1.00
C5       0.31753    0.68708    -0.11070   1.00
H2       0.17721    0.78402    0.00912   1.00
H2       0.16182    0.80440    -0.03712   1.00
H2       0.33454    0.68898    -0.08300   1.00
H2       0.32560    0.71292    -0.12895   1.00
H2       0.35044    0.66460    -0.19055   1.00
H2       0.13292    0.82019    0.05750   1.00
H2       0.10613    0.82771    0.01234   1.00
C2       0.25089    0.75241    0.10395   1.00
C3       0.21993    0.73393    0.08403   1.00
O2       0.18563    0.72530    0.10326   1.00
C3       0.28196    0.76812    0.08174   1.00
H1       0.30658    0.78155    0.09615   1.00
C3a      0.22015    0.73245    0.04287   1.00
H1       0.19518    0.72019    0.02798   1.00
C3b      0.28149    0.76771    0.04078   1.00
C4       0.25040    0.74986    0.02100   1.00
O_3      0.22016    0.81444    -0.02167   1.00
C5       0.18433    0.68527    0.11280   1.00
H2       0.18613    0.66669    0.08609   1.00
C5       0.14534    0.67798    0.13334   1.00
H2       0.20875    0.67725    0.13274   1.00
H2       0.12208    0.67570    0.11077   1.00
H2       0.13855    0.70440    0.15101   1.00
C5       0.14579    0.64123    0.15931   1.00
H2       0.15562    0.61570    0.14189   1.00
H2       0.11615    0.63507    0.17109   1.00
H2       0.16547    0.64508    0.18506   1.00
C5       0.16748    0.84612    0.00980   1.00
H2       0.16457    0.86988    -0.01218   1.00
H2       0.19092    0.85512    0.03045   1.00
C5       0.12888    0.84001    0.03197   1.00
H2       0.11806    0.86838    0.04334   1.00
C5       0.82724    0.35083    0.63227   1.00
H2       0.79995    0.35931    0.64755   1.00
H2       0.83321    0.37454    0.61099   1.00
C5       0.86091    0.34767    0.66219   1.00
H2       0.87318    0.37699    0.66890   1.00
H2       0.88454    0.32875    0.65040   1.00
O_3      0.81269    0.21721    0.48000   1.00
C4       0.74956    0.25008    0.52100   1.00
C3c      0.76518    0.28132    0.54243   1.00
H1       0.77745    0.30610    0.52725   1.00
C3d      0.73321    0.21832    0.54135   1.00
C3       0.76577    0.28092    0.58354   1.00
O2       0.77712    0.31446    0.60248   1.00
C3       0.73443    0.21750    0.58227   1.00
H1       0.72279    0.19190    0.59657   1.00
C2       0.75050    0.24865    0.60439   1.00
C5       0.81114    0.17605    0.47879   1.00
H2       0.81248    0.16459    0.44838   1.00
H2       0.78385    0.16494    0.49266   1.00
C5       0.84614    0.16063    0.50122   1.00
H2       0.84539    0.17296    0.53129   1.00
H2       0.87321    0.17160    0.48691   1.00
C5       0.84595    0.11589    0.50254   1.00
H2       0.84642    0.10338    0.47260   1.00
H2       0.81960    0.10494    0.51803   1.00
H2       0.87220    0.10514    0.51830   1.00
C5       0.68073    0.19080    0.51105   1.00
C5       0.81753    0.31292    0.61070   1.00
H2       0.67721    0.21598    0.49088   1.00
H2       0.66182    0.19560    0.53712   1.00
H2       0.83454    0.31102    0.58300   1.00
H2       0.82560    0.28708    0.62895   1.00
H2       0.85044    0.33540    0.69055   1.00
H2       0.63292    0.17981    0.44250   1.00
H2       0.60613    0.17229    0.48766   1.00
C2       0.75089    0.24759    0.39605   1.00
C3       0.71993    0.26607    0.41597   1.00
O2       0.68563    0.27470    0.39674   1.00
C3       0.78196    0.23188    0.41826   1.00
H1       0.80658    0.21845    0.40385   1.00
C3a      0.72015    0.26755    0.45713   1.00
H1       0.69518    0.27981    0.47202   1.00
C3b      0.78149    0.23229    0.45922   1.00
C4       0.75040    0.25014    0.47900   1.00
O_3      0.72016    0.18556    0.52167   1.00
C5       0.68433    0.31473    0.38720   1.00
H2       0.68613    0.33331    0.41391   1.00
C5       0.64534    0.32202    0.36666   1.00
H2       0.70875    0.32275    0.36726   1.00
H2       0.62208    0.32430    0.38923   1.00
H2       0.63855    0.29560    0.34899   1.00
C5       0.64579    0.35877    0.34069   1.00
H2       0.65562    0.38430    0.35811   1.00
H2       0.61615    0.36493    0.32891   1.00
H2       0.66547    0.35492    0.31494   1.00
C5       0.66748    0.15388    0.49020   1.00
H2       0.66457    0.13012    0.51218   1.00
H2       0.69092    0.14488    0.46955   1.00
C5       0.62888    0.15999    0.46803   1.00
H2       0.61806    0.13162    0.45666   1.00
C5       0.85083    0.63227    0.32724   1.00
H2       0.85931    0.64755    0.29995   1.00
H2       0.87454    0.61099    0.33321   1.00
C5       0.84767    0.66219    0.36091   1.00
H2       0.87699    0.66890    0.37318   1.00
H2       0.82875    0.65040    0.38454   1.00
O_3      0.71721    0.48000    0.31269   1.00
C4       0.75008    0.52100    0.24956   1.00
C3c      0.78132    0.54243    0.26518   1.00
H1       0.80610    0.52725    0.27745   1.00
C3d      0.71832    0.54135    0.23321   1.00
C3       0.78092    0.58354    0.26577   1.00
O2       0.81446    0.60248    0.27712   1.00
C3       0.71750    0.58227    0.23443   1.00
H1       0.69190    0.59657    0.22279   1.00
C2       0.74865    0.60439    0.25050   1.00
C5       0.67605    0.47879    0.31114   1.00
H2       0.66459    0.44838    0.31248   1.00
H2       0.66494    0.49266    0.28385   1.00
C5       0.66063    0.50122    0.34614   1.00
H2       0.67296    0.53129    0.34539   1.00
H2       0.67160    0.48691    0.37321   1.00
C5       0.61589    0.50254    0.34595   1.00
H2       0.60338    0.47260    0.34642   1.00
H2       0.60494    0.51803    0.31960   1.00
H2       0.60514    0.51830    0.37220   1.00
C5       0.69080    0.51105    0.18073   1.00
C5       0.81292    0.61070    0.31753   1.00
H2       0.71598    0.49088    0.17721   1.00
H2       0.69560    0.53712    0.16182   1.00
H2       0.81102    0.58300    0.33454   1.00
H2       0.78708    0.62895    0.32560   1.00
H2       0.83540    0.69055    0.35044   1.00
H2       0.67981    0.44250    0.13292   1.00
H2       0.67229    0.48766    0.10613   1.00
C2       0.74759    0.39605    0.25089   1.00
C3       0.76607    0.41597    0.21993   1.00
O2       0.77470    0.39674    0.18563   1.00
C3       0.73188    0.41826    0.28196   1.00
H1       0.71845    0.40385    0.30658   1.00
C3a      0.76755    0.45713    0.22015   1.00
H1       0.77981    0.47202    0.19518   1.00
C3b      0.73229    0.45922    0.28149   1.00
C4       0.75014    0.47900    0.25040   1.00
O_3      0.68556    0.52167    0.22016   1.00
C5       0.81473    0.38720    0.18433   1.00
H2       0.83331    0.41391    0.18613   1.00
C5       0.82202    0.36666    0.14534   1.00
H2       0.82275    0.36726    0.20875   1.00
H2       0.82430    0.38923    0.12208   1.00
H2       0.79560    0.34899    0.13855   1.00
C5       0.85877    0.34069    0.14579   1.00
H2       0.88430    0.35811    0.15562   1.00
H2       0.86493    0.32891    0.11615   1.00
H2       0.85492    0.31494    0.16547   1.00
C5       0.65388    0.49020    0.16748   1.00
H2       0.63012    0.51218    0.16457   1.00
H2       0.64488    0.46955    0.19092   1.00
C5       0.65999    0.46803    0.12888   1.00
H2       0.63162    0.45666    0.11806   1.00
C5       0.36773    0.32724    0.14917   1.00
H2       0.35245    0.29995    0.14069   1.00
H2       0.38901    0.33321    0.12546   1.00
C5       0.33781    0.36091    0.15233   1.00
H2       0.33110    0.37318    0.12301   1.00
H2       0.34960    0.38454    0.17125   1.00
O_3      0.52000    0.31269    0.28279   1.00
C4       0.47900    0.24956    0.24992   1.00
C3c      0.45757    0.26518    0.21868   1.00
H1       0.47275    0.27745    0.19390   1.00
C3d      0.45865    0.23321    0.28168   1.00
C3       0.41646    0.26577    0.21908   1.00
O2       0.39752    0.27712    0.18554   1.00
C3       0.41773    0.23443    0.28250   1.00
H1       0.40343    0.22279    0.30810   1.00
C2       0.39561    0.25050    0.25135   1.00
C5       0.52121    0.31114    0.32395   1.00
H2       0.55162    0.31248    0.33541   1.00
H2       0.50734    0.28385    0.33506   1.00
C5       0.49878    0.34614    0.33937   1.00
H2       0.46871    0.34539    0.32704   1.00
H2       0.51309    0.37321    0.32840   1.00
C5       0.49746    0.34595    0.38411   1.00
H2       0.52740    0.34642    0.39662   1.00
H2       0.48197    0.31960    0.39506   1.00
H2       0.48170    0.37220    0.39486   1.00
C5       0.48895    0.18073    0.30920   1.00
C5       0.38930    0.31753    0.18708   1.00
H2       0.50912    0.17721    0.28402   1.00
H2       0.46288    0.16182    0.30440   1.00
H2       0.41700    0.33454    0.18898   1.00
H2       0.37105    0.32560    0.21292   1.00
H2       0.30945    0.35044    0.16460   1.00
H2       0.55750    0.13292    0.32019   1.00
H2       0.51234    0.10613    0.32771   1.00
C2       0.60395    0.25089    0.25241   1.00
C3       0.58403    0.21993    0.23393   1.00
O2       0.60326    0.18563    0.22530   1.00
C3       0.58174    0.28196    0.26812   1.00
H1       0.59615    0.30658    0.28155   1.00
C3a      0.54287    0.22015    0.23245   1.00
H1       0.52798    0.19518    0.22019   1.00
C3b      0.54078    0.28149    0.26771   1.00
C4       0.52100    0.25040    0.24986   1.00
O_3      0.47833    0.22016    0.31444   1.00
C5       0.61280    0.18433    0.18527   1.00
H2       0.58609    0.18613    0.16669   1.00
C5       0.63334    0.14534    0.17798   1.00
H2       0.63274    0.20875    0.17725   1.00
H2       0.61077    0.12208    0.17570   1.00
H2       0.65101    0.13855    0.20440   1.00
C5       0.65931    0.14579    0.14123   1.00
H2       0.64189    0.15562    0.11570   1.00
H2       0.67109    0.11615    0.13507   1.00
H2       0.68506    0.16547    0.14508   1.00
C5       0.50980    0.16748    0.34612   1.00
H2       0.48782    0.16457    0.36988   1.00
H2       0.53045    0.19092    0.35512   1.00
C5       0.53197    0.12888    0.34001   1.00
H2       0.54334    0.11806    0.36838   1.00
C5       1.13227    0.32724    0.35083   1.00
H2       1.14755    0.29995    0.35931   1.00
H2       1.11099    0.33321    0.37454   1.00
C5       1.16219    0.36091    0.34767   1.00
H2       1.16890    0.37318    0.37699   1.00
H2       1.15040    0.38454    0.32875   1.00
O_3      0.98000    0.31269    0.21721   1.00
C4       1.02100    0.24956    0.25008   1.00
C3c      1.04243    0.26518    0.28132   1.00
H1       1.02725    0.27745    0.30610   1.00
C3d      1.04135    0.23321    0.21832   1.00
C3       1.08354    0.26577    0.28092   1.00
O2       1.10248    0.27712    0.31446   1.00
C3       1.08227    0.23443    0.21750   1.00
H1       1.09657    0.22279    0.19190   1.00
C2       1.10439    0.25050    0.24865   1.00
C5       0.97879    0.31114    0.17605   1.00
H2       0.94838    0.31248    0.16459   1.00
H2       0.99266    0.28385    0.16494   1.00
C5       1.00122    0.34614    0.16063   1.00
H2       1.03129    0.34539    0.17296   1.00
H2       0.98691    0.37321    0.17160   1.00
C5       1.00254    0.34595    0.11589   1.00
H2       0.97260    0.34642    0.10338   1.00
H2       1.01803    0.31960    0.10494   1.00
H2       1.01830    0.37220    0.10514   1.00
C5       1.01105    0.18073    0.19080   1.00
C5       1.11070    0.31753    0.31292   1.00
H2       0.99088    0.17721    0.21598   1.00
H2       1.03712    0.16182    0.19560   1.00
H2       1.08300    0.33454    0.31102   1.00
H2       1.12895    0.32560    0.28708   1.00
H2       1.19055    0.35044    0.33540   1.00
H2       0.94250    0.13292    0.17981   1.00
H2       0.98766    0.10613    0.17229   1.00
C2       0.89605    0.25089    0.24759   1.00
C3       0.91597    0.21993    0.26607   1.00
O2       0.89674    0.18563    0.27470   1.00
C3       0.91826    0.28196    0.23188   1.00
H1       0.90385    0.30658    0.21845   1.00
C3a      0.95713    0.22015    0.26755   1.00
H1       0.97202    0.19518    0.27981   1.00
C3b      0.95922    0.28149    0.23229   1.00
C4       0.97900    0.25040    0.25014   1.00
O_3      1.02167    0.22016    0.18556   1.00
C5       0.88720    0.18433    0.31473   1.00
H2       0.91391    0.18613    0.33331   1.00
C5       0.86666    0.14534    0.32202   1.00
H2       0.86726    0.20875    0.32275   1.00
H2       0.88923    0.12208    0.32430   1.00
H2       0.84899    0.13855    0.29560   1.00
C5       0.84069    0.14579    0.35877   1.00
H2       0.85811    0.15562    0.38430   1.00
H2       0.82891    0.11615    0.36493   1.00
H2       0.81494    0.16547    0.35492   1.00
C5       0.99020    0.16748    0.15388   1.00
H2       1.01218    0.16457    0.13012   1.00
H2       0.96955    0.19092    0.14488   1.00
C5       0.96803    0.12888    0.15999   1.00
H2       0.95666    0.11806    0.13162   1.00
C5       0.64917    -0.13227   0.32724   1.00
H2       0.64069    -0.14755   0.29995   1.00
H2       0.62546    -0.11099   0.33321   1.00
C5       0.65233    -0.16219   0.36091   1.00
H2       0.62301    -0.16890   0.37318   1.00
H2       0.67125    -0.15040   0.38454   1.00
O_3      0.78279    0.02000    0.31269   1.00
C4       0.74992    -0.02100   0.24956   1.00
C3c      0.71868    -0.04243   0.26518   1.00
H1       0.69390    -0.02725   0.27745   1.00
C3d      0.78168    -0.04135   0.23321   1.00
C3       0.71908    -0.08354   0.26577   1.00
O2       0.68554    -0.10248   0.27712   1.00
C3       0.78250    -0.08227   0.23443   1.00
H1       0.80810    -0.09657   0.22279   1.00
C2       0.75135    -0.10439   0.25050   1.00
C5       0.82395    0.02121    0.31114   1.00
H2       0.83541    0.05162    0.31248   1.00
H2       0.83506    0.00734    0.28385   1.00
C5       0.83937    -0.00122   0.34614   1.00
H2       0.82704    -0.03129   0.34539   1.00
H2       0.82840    0.01309    0.37321   1.00
C5       0.88411    -0.00254   0.34595   1.00
H2       0.89662    0.02740    0.34642   1.00
H2       0.89506    -0.01803   0.31960   1.00
H2       0.89486    -0.01830   0.37220   1.00
C5       0.80920    -0.01105   0.18073   1.00
C5       0.68708    -0.11070   0.31753   1.00
H2       0.78402    0.00912    0.17721   1.00
H2       0.80440    -0.03712   0.16182   1.00
H2       0.68898    -0.08300   0.33454   1.00
H2       0.71292    -0.12895   0.32560   1.00
H2       0.66460    -0.19055   0.35044   1.00
H2       0.82019    0.05750    0.13292   1.00
H2       0.82771    0.01234    0.10613   1.00
C2       0.75241    0.10395    0.25089   1.00
C3       0.73393    0.08403    0.21993   1.00
O2       0.72530    0.10326    0.18563   1.00
C3       0.76812    0.08174    0.28196   1.00
H1       0.78155    0.09615    0.30658   1.00
C3a      0.73245    0.04287    0.22015   1.00
H1       0.72019    0.02798    0.19518   1.00
C3b      0.76771    0.04078    0.28149   1.00
C4       0.74986    0.02100    0.25040   1.00
O_3      0.81444    -0.02167   0.22016   1.00
C5       0.68527    0.11280    0.18433   1.00
H2       0.66669    0.08609    0.18613   1.00
C5       0.67798    0.13334    0.14534   1.00
H2       0.67725    0.13274    0.20875   1.00
H2       0.67570    0.11077    0.12208   1.00
H2       0.70440    0.15101    0.13855   1.00
C5       0.64123    0.15931    0.14579   1.00
H2       0.61570    0.14189    0.15562   1.00
H2       0.63507    0.17109    0.11615   1.00
H2       0.64508    0.18506    0.16547   1.00
C5       0.84612    0.00980    0.16748   1.00
H2       0.86988    -0.01218   0.16457   1.00
H2       0.85512    0.03045    0.19092   1.00
C5       0.84001    0.03197    0.12888   1.00
H2       0.86838    0.04334    0.11806   1.00
C5       0.82724    0.14917    -0.13227   1.00
H2       0.79995    0.14069    -0.14755   1.00
H2       0.83321    0.12546    -0.11099   1.00
C5       0.86091    0.15233    -0.16219   1.00
H2       0.87318    0.12301    -0.16890   1.00
H2       0.88454    0.17125    -0.15040   1.00
O_3      0.81269    0.28279    0.02000   1.00
C4       0.74956    0.24992    -0.02100   1.00
C3c      0.76518    0.21868    -0.04243   1.00
H1       0.77745    0.19390    -0.02725   1.00
C3d      0.73321    0.28168    -0.04135   1.00
C3       0.76577    0.21908    -0.08354   1.00
O2       0.77712    0.18554    -0.10248   1.00
C3       0.73443    0.28250    -0.08227   1.00
H1       0.72279    0.30810    -0.09657   1.00
C2       0.75050    0.25135    -0.10439   1.00
C5       0.81114    0.32395    0.02121   1.00
H2       0.81248    0.33541    0.05162   1.00
H2       0.78385    0.33506    0.00734   1.00
C5       0.84614    0.33937    -0.00122   1.00
H2       0.84539    0.32704    -0.03129   1.00
H2       0.87321    0.32840    0.01309   1.00
C5       0.84595    0.38411    -0.00254   1.00
H2       0.84642    0.39662    0.02740   1.00
H2       0.81960    0.39506    -0.01803   1.00
H2       0.87220    0.39486    -0.01830   1.00
C5       0.68073    0.30920    -0.01105   1.00
C5       0.81753    0.18708    -0.11070   1.00
H2       0.67721    0.28402    0.00912   1.00
H2       0.66182    0.30440    -0.03712   1.00
H2       0.83454    0.18898    -0.08300   1.00
H2       0.82560    0.21292    -0.12895   1.00
H2       0.85044    0.16460    -0.19055   1.00
H2       0.63292    0.32019    0.05750   1.00
H2       0.60613    0.32771    0.01234   1.00
C2       0.75089    0.25241    0.10395   1.00
C3       0.71993    0.23393    0.08403   1.00
O2       0.68563    0.22530    0.10326   1.00
C3       0.78196    0.26812    0.08174   1.00
H1       0.80658    0.28155    0.09615   1.00
C3a      0.72015    0.23245    0.04287   1.00
H1       0.69518    0.22019    0.02798   1.00
C3b      0.78149    0.26771    0.04078   1.00
C4       0.75040    0.24986    0.02100   1.00
O_3      0.72016    0.31444    -0.02167   1.00
C5       0.68433    0.18527    0.11280   1.00
H2       0.68613    0.16669    0.08609   1.00
C5       0.64534    0.17798    0.13334   1.00
H2       0.70875    0.17725    0.13274   1.00
H2       0.62208    0.17570    0.11077   1.00
H2       0.63855    0.20440    0.15101   1.00
C5       0.64579    0.14123    0.15931   1.00
H2       0.65562    0.11570    0.14189   1.00
H2       0.61615    0.13507    0.17109   1.00
H2       0.66547    0.14508    0.18506   1.00
C5       0.66748    0.34612    0.00980   1.00
H2       0.66457    0.36988    -0.01218   1.00
H2       0.69092    0.35512    0.03045   1.00
C5       0.62888    0.34001    0.03197   1.00
H2       0.61806    0.36838    0.04334   1.00
