data_IRMOF10_SG202_noLabel_car_l

_audit_creation_method             'generated by an auxiliary program of Tobunporous'

_symmetry_space_group_name_H-M     'P 1'
_symmetry_Int_Tables_number        1
_symmetry_cell_setting             triclinic

_cell_length_a                    34.2800
_cell_length_b                    34.2800
_cell_length_c                    34.2800
_cell_angle_alpha                 90.0000
_cell_angle_beta                  90.0000
_cell_angle_gamma                 90.0000

loop_
_atom_site_label
_atom_site_fract_x
_atom_site_fract_y
_atom_site_fract_z
_atom_site_occupancy
O1       0.75000    0.75000    0.75000   1.00
Zn1      0.71720    0.78280    0.78280   1.00
Zn1      0.78280    0.71720    0.78280   1.00
Zn1      0.78280    0.78280    0.71720   1.00
Zn1      0.71720    0.71720    0.71720   1.00
O2       0.72650    0.77350    0.83820   1.00
O2       0.72650    0.83820    0.77350   1.00
O2       0.66180    0.77350    0.77350   1.00
O2       0.77350    0.72650    0.83820   1.00
O2       0.83820    0.72650    0.77350   1.00
O2       0.77350    0.66180    0.77350   1.00
O2       0.77350    0.83820    0.72650   1.00
O2       0.83820    0.77350    0.72650   1.00
O2       0.77350    0.77350    0.66180   1.00
O2       0.66180    0.72650    0.72650   1.00
O2       0.72650    0.66180    0.72650   1.00
O2       0.72650    0.72650    0.66180   1.00
C1       0.75000    0.75000    0.85520   1.00
C1       0.75000    0.85520    0.75000   1.00
C1       0.64480    0.75000    0.75000   1.00
C1       0.85520    0.75000    0.75000   1.00
C1       0.75000    0.64480    0.75000   1.00
C1       0.75000    0.75000    0.64480   1.00
O1       0.25000    0.25000    0.75000   1.00
Zn1      0.21720    0.28280    0.78280   1.00
Zn1      0.28280    0.21720    0.78280   1.00
Zn1      0.28280    0.28280    0.71720   1.00
Zn1      0.21720    0.21720    0.71720   1.00
O2       0.22650    0.27350    0.83820   1.00
O2       0.22650    0.33820    0.77350   1.00
O2       0.16180    0.27350    0.77350   1.00
O2       0.27350    0.22650    0.83820   1.00
O2       0.33820    0.22650    0.77350   1.00
O2       0.27350    0.16180    0.77350   1.00
O2       0.27350    0.33820    0.72650   1.00
O2       0.33820    0.27350    0.72650   1.00
O2       0.27350    0.27350    0.66180   1.00
O2       0.16180    0.22650    0.72650   1.00
O2       0.22650    0.16180    0.72650   1.00
O2       0.22650    0.22650    0.66180   1.00
C1       0.25000    0.25000    0.85520   1.00
C1       0.25000    0.35520    0.75000   1.00
C1       0.14480    0.25000    0.75000   1.00
C1       0.35520    0.25000    0.75000   1.00
C1       0.25000    0.14480    0.75000   1.00
C1       0.25000    0.25000    0.64480   1.00
O1       0.25000    0.75000    0.25000   1.00
Zn1      0.21720    0.78280    0.28280   1.00
Zn1      0.28280    0.71720    0.28280   1.00
Zn1      0.28280    0.78280    0.21720   1.00
Zn1      0.21720    0.71720    0.21720   1.00
O2       0.22650    0.77350    0.33820   1.00
O2       0.22650    0.83820    0.27350   1.00
O2       0.16180    0.77350    0.27350   1.00
O2       0.27350    0.72650    0.33820   1.00
O2       0.33820    0.72650    0.27350   1.00
O2       0.27350    0.66180    0.27350   1.00
O2       0.27350    0.83820    0.22650   1.00
O2       0.33820    0.77350    0.22650   1.00
O2       0.27350    0.77350    0.16180   1.00
O2       0.16180    0.72650    0.22650   1.00
O2       0.22650    0.66180    0.22650   1.00
O2       0.22650    0.72650    0.16180   1.00
C1       0.25000    0.75000    0.35520   1.00
C1       0.25000    0.85520    0.25000   1.00
C1       0.14480    0.75000    0.25000   1.00
C1       0.35520    0.75000    0.25000   1.00
C1       0.25000    0.64480    0.25000   1.00
C1       0.25000    0.75000    0.14480   1.00
O1       0.75000    0.25000    0.25000   1.00
Zn1      0.71720    0.28280    0.28280   1.00
Zn1      0.78280    0.21720    0.28280   1.00
Zn1      0.78280    0.28280    0.21720   1.00
Zn1      0.71720    0.21720    0.21720   1.00
O2       0.72650    0.27350    0.33820   1.00
O2       0.72650    0.33820    0.27350   1.00
O2       0.66180    0.27350    0.27350   1.00
O2       0.77350    0.22650    0.33820   1.00
O2       0.83820    0.22650    0.27350   1.00
O2       0.77350    0.16180    0.27350   1.00
O2       0.77350    0.33820    0.22650   1.00
O2       0.83820    0.27350    0.22650   1.00
O2       0.77350    0.27350    0.16180   1.00
O2       0.66180    0.22650    0.22650   1.00
O2       0.72650    0.16180    0.22650   1.00
O2       0.72650    0.22650    0.16180   1.00
C1       0.75000    0.25000    0.35520   1.00
C1       0.75000    0.35520    0.25000   1.00
C1       0.64480    0.25000    0.25000   1.00
C1       0.85520    0.25000    0.25000   1.00
C1       0.75000    0.14480    0.25000   1.00
C1       0.75000    0.25000    0.14480   1.00
O1       0.25000    0.25000    0.25000   1.00
Zn1      0.28280    0.21720    0.21720   1.00
Zn1      0.21720    0.28280    0.21720   1.00
Zn1      0.21720    0.21720    0.28280   1.00
Zn1      0.28280    0.28280    0.28280   1.00
O2       0.27350    0.22650    0.16180   1.00
O2       0.27350    0.16180    0.22650   1.00
O2       0.33820    0.22650    0.22650   1.00
O2       0.22650    0.27350    0.16180   1.00
O2       0.16180    0.27350    0.22650   1.00
O2       0.22650    0.33820    0.22650   1.00
O2       0.22650    0.16180    0.27350   1.00
O2       0.16180    0.22650    0.27350   1.00
O2       0.22650    0.22650    0.33820   1.00
O2       0.33820    0.27350    0.27350   1.00
O2       0.27350    0.33820    0.27350   1.00
O2       0.27350    0.27350    0.33820   1.00
C1       0.25000    0.25000    0.14480   1.00
C1       0.25000    0.14480    0.25000   1.00
C1       0.35520    0.25000    0.25000   1.00
C1       0.14480    0.25000    0.25000   1.00
C1       0.25000    0.35520    0.25000   1.00
C1       0.25000    0.25000    0.35520   1.00
O1       0.75000    0.75000    0.25000   1.00
Zn1      0.78280    0.71720    0.21720   1.00
Zn1      0.71720    0.78280    0.21720   1.00
Zn1      0.71720    0.71720    0.28280   1.00
Zn1      0.78280    0.78280    0.28280   1.00
O2       0.77350    0.72650    0.16180   1.00
O2       0.77350    0.66180    0.22650   1.00
O2       0.83820    0.72650    0.22650   1.00
O2       0.72650    0.77350    0.16180   1.00
O2       0.66180    0.77350    0.22650   1.00
O2       0.72650    0.83820    0.22650   1.00
O2       0.72650    0.66180    0.27350   1.00
O2       0.66180    0.72650    0.27350   1.00
O2       0.72650    0.72650    0.33820   1.00
O2       0.83820    0.77350    0.27350   1.00
O2       0.77350    0.83820    0.27350   1.00
O2       0.77350    0.77350    0.33820   1.00
C1       0.75000    0.75000    0.14480   1.00
C1       0.75000    0.64480    0.25000   1.00
C1       0.85520    0.75000    0.25000   1.00
C1       0.64480    0.75000    0.25000   1.00
C1       0.75000    0.85520    0.25000   1.00
C1       0.75000    0.75000    0.35520   1.00
O1       0.75000    0.25000    0.75000   1.00
Zn1      0.78280    0.21720    0.71720   1.00
Zn1      0.71720    0.28280    0.71720   1.00
Zn1      0.71720    0.21720    0.78280   1.00
Zn1      0.78280    0.28280    0.78280   1.00
O2       0.77350    0.22650    0.66180   1.00
O2       0.77350    0.16180    0.72650   1.00
O2       0.83820    0.22650    0.72650   1.00
O2       0.72650    0.27350    0.66180   1.00
O2       0.66180    0.27350    0.72650   1.00
O2       0.72650    0.33820    0.72650   1.00
O2       0.72650    0.16180    0.77350   1.00
O2       0.66180    0.22650    0.77350   1.00
O2       0.72650    0.22650    0.83820   1.00
O2       0.83820    0.27350    0.77350   1.00
O2       0.77350    0.33820    0.77350   1.00
O2       0.77350    0.27350    0.83820   1.00
C1       0.75000    0.25000    0.64480   1.00
C1       0.75000    0.14480    0.75000   1.00
C1       0.85520    0.25000    0.75000   1.00
C1       0.64480    0.25000    0.75000   1.00
C1       0.75000    0.35520    0.75000   1.00
C1       0.75000    0.25000    0.85520   1.00
O1       0.25000    0.75000    0.75000   1.00
Zn1      0.28280    0.71720    0.71720   1.00
Zn1      0.21720    0.78280    0.71720   1.00
Zn1      0.21720    0.71720    0.78280   1.00
Zn1      0.28280    0.78280    0.78280   1.00
O2       0.27350    0.72650    0.66180   1.00
O2       0.27350    0.66180    0.72650   1.00
O2       0.33820    0.72650    0.72650   1.00
O2       0.22650    0.77350    0.66180   1.00
O2       0.16180    0.77350    0.72650   1.00
O2       0.22650    0.83820    0.72650   1.00
O2       0.22650    0.66180    0.77350   1.00
O2       0.16180    0.72650    0.77350   1.00
O2       0.22650    0.72650    0.83820   1.00
O2       0.33820    0.77350    0.77350   1.00
O2       0.27350    0.83820    0.77350   1.00
O2       0.27350    0.77350    0.83820   1.00
C1       0.25000    0.75000    0.64480   1.00
C1       0.25000    0.64480    0.75000   1.00
C1       0.35520    0.75000    0.75000   1.00
C1       0.14480    0.75000    0.75000   1.00
C1       0.25000    0.85520    0.75000   1.00
C1       0.25000    0.75000    0.85520   1.00
C2       0.75000    0.75000    0.89720   1.00
C3a      0.78025    0.73253    0.91780   1.00
C3a      0.71975    0.76747    0.91780   1.00
H1       0.80129    0.72039    0.90380   1.00
H1       0.69871    0.77961    0.90380   1.00
C3a      0.78056    0.73236    0.95870   1.00
C3a      0.71944    0.76764    0.95870   1.00
H11      0.80165    0.72018    0.97250   1.00
H12      0.69835    0.77982    0.97250   1.00
C4       0.75000    0.75000    0.97940   1.00
C4       0.75000    0.75000    0.02060   1.00
C3a      0.71944    0.76764    0.04130   1.00
C3a      0.78056    0.73236    0.04130   1.00
H13      0.69835    0.77982    0.02750   1.00
H14      0.80165    0.72018    0.02750   1.00
C3a      0.71975    0.76747    0.08220   1.00
C3a      0.78025    0.73253    0.08220   1.00
H1       0.69871    0.77961    0.09620   1.00
H1       0.80129    0.72039    0.09620   1.00
C2       0.75000    0.75000    0.10280   1.00
C2       0.75000    0.89720    0.75000   1.00
C3a      0.73253    0.91780    0.78025   1.00
C3a      0.76747    0.91780    0.71975   1.00
H1       0.72039    0.90380    0.80129   1.00
H1       0.77961    0.90380    0.69871   1.00
C3a      0.73236    0.95870    0.78056   1.00
C3a      0.76764    0.95870    0.71944   1.00
H11      0.72018    0.97250    0.80165   1.00
H12      0.77982    0.97250    0.69835   1.00
C4       0.75000    0.97940    0.75000   1.00
C4       0.75000    0.02060    0.75000   1.00
C3a      0.76764    0.04130    0.71944   1.00
C3a      0.73236    0.04130    0.78056   1.00
H13      0.77982    0.02750    0.69835   1.00
H14      0.72018    0.02750    0.80165   1.00
C3a      0.76747    0.08220    0.71975   1.00
C3a      0.73253    0.08220    0.78025   1.00
H1       0.77961    0.09620    0.69871   1.00
H1       0.72039    0.09620    0.80129   1.00
C2       0.75000    0.10280    0.75000   1.00
C2       0.60280    0.75000    0.75000   1.00
C3a      0.58220    0.78025    0.76747   1.00
C3a      0.58220    0.71975    0.73253   1.00
H1       0.59620    0.80129    0.77961   1.00
H1       0.59620    0.69871    0.72039   1.00
C3a      0.54130    0.78056    0.76764   1.00
C3a      0.54130    0.71944    0.73236   1.00
H11      0.52750    0.80165    0.77982   1.00
H12      0.52750    0.69835    0.72018   1.00
C4       0.52060    0.75000    0.75000   1.00
C4       0.47940    0.75000    0.75000   1.00
C3a      0.45870    0.71944    0.73236   1.00
C3a      0.45870    0.78056    0.76764   1.00
H13      0.47250    0.69835    0.72018   1.00
H14      0.47250    0.80165    0.77982   1.00
C3a      0.41780    0.71975    0.73253   1.00
C3a      0.41780    0.78025    0.76747   1.00
H1       0.40380    0.69871    0.72039   1.00
H1       0.40380    0.80129    0.77961   1.00
C2       0.39720    0.75000    0.75000   1.00
C2       0.89720    0.75000    0.75000   1.00
C3a      0.91780    0.78025    0.73253   1.00
C3a      0.91780    0.71975    0.76747   1.00
H1       0.90380    0.80129    0.72039   1.00
H1       0.90380    0.69871    0.77961   1.00
C3a      0.95870    0.78056    0.73236   1.00
C3a      0.95870    0.71944    0.76764   1.00
H11      0.97250    0.80165    0.72018   1.00
H12      0.97250    0.69835    0.77982   1.00
C4       0.97940    0.75000    0.75000   1.00
C4       0.02060    0.75000    0.75000   1.00
C3a      0.04130    0.71944    0.76764   1.00
C3a      0.04130    0.78056    0.73236   1.00
H13      0.02750    0.69835    0.77982   1.00
H14      0.02750    0.80165    0.72018   1.00
C3a      0.08220    0.71975    0.76747   1.00
C3a      0.08220    0.78025    0.73253   1.00
H1       0.09620    0.69871    0.77961   1.00
H1       0.09620    0.80129    0.72039   1.00
C2       0.10280    0.75000    0.75000   1.00
C2       0.75000    0.60280    0.75000   1.00
C3a      0.76747    0.58220    0.78025   1.00
C3a      0.73253    0.58220    0.71975   1.00
H1       0.77961    0.59620    0.80129   1.00
H1       0.72039    0.59620    0.69871   1.00
C3a      0.76764    0.54130    0.78056   1.00
C3a      0.73236    0.54130    0.71944   1.00
H11      0.77982    0.52750    0.80165   1.00
H12      0.72018    0.52750    0.69835   1.00
C4       0.75000    0.52060    0.75000   1.00
C4       0.75000    0.47940    0.75000   1.00
C3a      0.73236    0.45870    0.71944   1.00
C3a      0.76764    0.45870    0.78056   1.00
H13      0.72018    0.47250    0.69835   1.00
H14      0.77982    0.47250    0.80165   1.00
C3a      0.73253    0.41780    0.71975   1.00
C3a      0.76747    0.41780    0.78025   1.00
H1       0.72039    0.40380    0.69871   1.00
H1       0.77961    0.40380    0.80129   1.00
C2       0.75000    0.39720    0.75000   1.00
C2       0.75000    0.75000    0.60280   1.00
C3a      0.78025    0.76747    0.58220   1.00
C3a      0.71975    0.73253    0.58220   1.00
H1       0.80129    0.77961    0.59620   1.00
H1       0.69871    0.72039    0.59620   1.00
C3a      0.78056    0.76764    0.54130   1.00
C3a      0.71944    0.73236    0.54130   1.00
H11      0.80165    0.77982    0.52750   1.00
H12      0.69835    0.72018    0.52750   1.00
C4       0.75000    0.75000    0.52060   1.00
C4       0.75000    0.75000    0.47940   1.00
C3a      0.71944    0.73236    0.45870   1.00
C3a      0.78056    0.76764    0.45870   1.00
H13      0.69835    0.72018    0.47250   1.00
H14      0.80165    0.77982    0.47250   1.00
C3a      0.71975    0.73253    0.41780   1.00
C3a      0.78025    0.76747    0.41780   1.00
H1       0.69871    0.72039    0.40380   1.00
H1       0.80129    0.77961    0.40380   1.00
C2       0.75000    0.75000    0.39720   1.00
C2       0.25000    0.25000    0.89720   1.00
C3a      0.28025    0.23253    0.91780   1.00
C3a      0.21975    0.26747    0.91780   1.00
H1       0.30129    0.22039    0.90380   1.00
H1       0.19871    0.27961    0.90380   1.00
C3a      0.28056    0.23236    0.95870   1.00
C3a      0.21944    0.26764    0.95870   1.00
H11      0.30165    0.22018    0.97250   1.00
H12      0.19835    0.27982    0.97250   1.00
C4       0.25000    0.25000    0.97940   1.00
C4       0.25000    0.25000    0.02060   1.00
C3a      0.21944    0.26764    0.04130   1.00
C3a      0.28056    0.23236    0.04130   1.00
H13      0.19835    0.27982    0.02750   1.00
H14      0.30165    0.22018    0.02750   1.00
C3a      0.21975    0.26747    0.08220   1.00
C3a      0.28025    0.23253    0.08220   1.00
H1       0.19871    0.27961    0.09620   1.00
H1       0.30129    0.22039    0.09620   1.00
C2       0.25000    0.25000    0.10280   1.00
C2       0.25000    0.39720    0.75000   1.00
C3a      0.23253    0.41780    0.78025   1.00
C3a      0.26747    0.41780    0.71975   1.00
H1       0.22039    0.40380    0.80129   1.00
H1       0.27961    0.40380    0.69871   1.00
C3a      0.23236    0.45870    0.78056   1.00
C3a      0.26764    0.45870    0.71944   1.00
H11      0.22018    0.47250    0.80165   1.00
H12      0.27982    0.47250    0.69835   1.00
C4       0.25000    0.47940    0.75000   1.00
C4       0.25000    0.52060    0.75000   1.00
C3a      0.26764    0.54130    0.71944   1.00
C3a      0.23236    0.54130    0.78056   1.00
H13      0.27982    0.52750    0.69835   1.00
H14      0.22018    0.52750    0.80165   1.00
C3a      0.26747    0.58220    0.71975   1.00
C3a      0.23253    0.58220    0.78025   1.00
H1       0.27961    0.59620    0.69871   1.00
H1       0.22039    0.59620    0.80129   1.00
C2       0.25000    0.60280    0.75000   1.00
C2       0.10280    0.25000    0.75000   1.00
C3a      0.08220    0.28025    0.76747   1.00
C3a      0.08220    0.21975    0.73253   1.00
H1       0.09620    0.30129    0.77961   1.00
H1       0.09620    0.19871    0.72039   1.00
C3a      0.04130    0.28056    0.76764   1.00
C3a      0.04130    0.21944    0.73236   1.00
H11      0.02750    0.30165    0.77982   1.00
H12      0.02750    0.19835    0.72018   1.00
C4       0.02060    0.25000    0.75000   1.00
C4       0.97940    0.25000    0.75000   1.00
C3a      0.95870    0.21944    0.73236   1.00
C3a      0.95870    0.28056    0.76764   1.00
H13      0.97250    0.19835    0.72018   1.00
H14      0.97250    0.30165    0.77982   1.00
C3a      0.91780    0.21975    0.73253   1.00
C3a      0.91780    0.28025    0.76747   1.00
H1       0.90380    0.19871    0.72039   1.00
H1       0.90380    0.30129    0.77961   1.00
C2       0.89720    0.25000    0.75000   1.00
C2       0.39720    0.25000    0.75000   1.00
C3a      0.41780    0.28025    0.73253   1.00
C3a      0.41780    0.21975    0.76747   1.00
H1       0.40380    0.30129    0.72039   1.00
H1       0.40380    0.19871    0.77961   1.00
C3a      0.45870    0.28056    0.73236   1.00
C3a      0.45870    0.21944    0.76764   1.00
H11      0.47250    0.30165    0.72018   1.00
H12      0.47250    0.19835    0.77982   1.00
C4       0.47940    0.25000    0.75000   1.00
C4       0.52060    0.25000    0.75000   1.00
C3a      0.54130    0.21944    0.76764   1.00
C3a      0.54130    0.28056    0.73236   1.00
H13      0.52750    0.19835    0.77982   1.00
H14      0.52750    0.30165    0.72018   1.00
C3a      0.58220    0.21975    0.76747   1.00
C3a      0.58220    0.28025    0.73253   1.00
H1       0.59620    0.19871    0.77961   1.00
H1       0.59620    0.30129    0.72039   1.00
C2       0.60280    0.25000    0.75000   1.00
C2       0.25000    0.10280    0.75000   1.00
C3a      0.26747    0.08220    0.78025   1.00
C3a      0.23253    0.08220    0.71975   1.00
H1       0.27961    0.09620    0.80129   1.00
H1       0.22039    0.09620    0.69871   1.00
C3a      0.26764    0.04130    0.78056   1.00
C3a      0.23236    0.04130    0.71944   1.00
H11      0.27982    0.02750    0.80165   1.00
H12      0.22018    0.02750    0.69835   1.00
C4       0.25000    0.02060    0.75000   1.00
C4       0.25000    0.97940    0.75000   1.00
C3a      0.23236    0.95870    0.71944   1.00
C3a      0.26764    0.95870    0.78056   1.00
H13      0.22018    0.97250    0.69835   1.00
H14      0.27982    0.97250    0.80165   1.00
C3a      0.23253    0.91780    0.71975   1.00
C3a      0.26747    0.91780    0.78025   1.00
H1       0.22039    0.90380    0.69871   1.00
H1       0.27961    0.90380    0.80129   1.00
C2       0.25000    0.89720    0.75000   1.00
C2       0.25000    0.25000    0.60280   1.00
C3a      0.28025    0.26747    0.58220   1.00
C3a      0.21975    0.23253    0.58220   1.00
H1       0.30129    0.27961    0.59620   1.00
H1       0.19871    0.22039    0.59620   1.00
C3a      0.28056    0.26764    0.54130   1.00
C3a      0.21944    0.23236    0.54130   1.00
H11      0.30165    0.27982    0.52750   1.00
H12      0.19835    0.22018    0.52750   1.00
C4       0.25000    0.25000    0.52060   1.00
C4       0.25000    0.25000    0.47940   1.00
C3a      0.21944    0.23236    0.45870   1.00
C3a      0.28056    0.26764    0.45870   1.00
H13      0.19835    0.22018    0.47250   1.00
H14      0.30165    0.27982    0.47250   1.00
C3a      0.21975    0.23253    0.41780   1.00
C3a      0.28025    0.26747    0.41780   1.00
H1       0.19871    0.22039    0.40380   1.00
H1       0.30129    0.27961    0.40380   1.00
C2       0.25000    0.25000    0.39720   1.00
C2       0.25000    0.75000    0.39720   1.00
C3a      0.28025    0.73253    0.41780   1.00
C3a      0.21975    0.76747    0.41780   1.00
H1       0.30129    0.72039    0.40380   1.00
H1       0.19871    0.77961    0.40380   1.00
C3a      0.28056    0.73236    0.45870   1.00
C3a      0.21944    0.76764    0.45870   1.00
H11      0.30165    0.72018    0.47250   1.00
H12      0.19835    0.77982    0.47250   1.00
C4       0.25000    0.75000    0.47940   1.00
C4       0.25000    0.75000    0.52060   1.00
C3a      0.21944    0.76764    0.54130   1.00
C3a      0.28056    0.73236    0.54130   1.00
H13      0.19835    0.77982    0.52750   1.00
H14      0.30165    0.72018    0.52750   1.00
C3a      0.21975    0.76747    0.58220   1.00
C3a      0.28025    0.73253    0.58220   1.00
H1       0.19871    0.77961    0.59620   1.00
H1       0.30129    0.72039    0.59620   1.00
C2       0.25000    0.75000    0.60280   1.00
C2       0.25000    0.89720    0.25000   1.00
C3a      0.23253    0.91780    0.28025   1.00
C3a      0.26747    0.91780    0.21975   1.00
H1       0.22039    0.90380    0.30129   1.00
H1       0.27961    0.90380    0.19871   1.00
C3a      0.23236    0.95870    0.28056   1.00
C3a      0.26764    0.95870    0.21944   1.00
H11      0.22018    0.97250    0.30165   1.00
H12      0.27982    0.97250    0.19835   1.00
C4       0.25000    0.97940    0.25000   1.00
C4       0.25000    0.02060    0.25000   1.00
C3a      0.26764    0.04130    0.21944   1.00
C3a      0.23236    0.04130    0.28056   1.00
H13      0.27982    0.02750    0.19835   1.00
H14      0.22018    0.02750    0.30165   1.00
C3a      0.26747    0.08220    0.21975   1.00
C3a      0.23253    0.08220    0.28025   1.00
H1       0.27961    0.09620    0.19871   1.00
H1       0.22039    0.09620    0.30129   1.00
C2       0.25000    0.10280    0.25000   1.00
C2       0.10280    0.75000    0.25000   1.00
C3a      0.08220    0.78025    0.26747   1.00
C3a      0.08220    0.71975    0.23253   1.00
H1       0.09620    0.80129    0.27961   1.00
H1       0.09620    0.69871    0.22039   1.00
C3a      0.04130    0.78056    0.26764   1.00
C3a      0.04130    0.71944    0.23236   1.00
H11      0.02750    0.80165    0.27982   1.00
H12      0.02750    0.69835    0.22018   1.00
C4       0.02060    0.75000    0.25000   1.00
C4       0.97940    0.75000    0.25000   1.00
C3a      0.95870    0.71944    0.23236   1.00
C3a      0.95870    0.78056    0.26764   1.00
H13      0.97250    0.69835    0.22018   1.00
H14      0.97250    0.80165    0.27982   1.00
C3a      0.91780    0.71975    0.23253   1.00
C3a      0.91780    0.78025    0.26747   1.00
H1       0.90380    0.69871    0.22039   1.00
H1       0.90380    0.80129    0.27961   1.00
C2       0.89720    0.75000    0.25000   1.00
C2       0.39720    0.75000    0.25000   1.00
C3a      0.41780    0.78025    0.23253   1.00
C3a      0.41780    0.71975    0.26747   1.00
H1       0.40380    0.80129    0.22039   1.00
H1       0.40380    0.69871    0.27961   1.00
C3a      0.45870    0.78056    0.23236   1.00
C3a      0.45870    0.71944    0.26764   1.00
H11      0.47250    0.80165    0.22018   1.00
H12      0.47250    0.69835    0.27982   1.00
C4       0.47940    0.75000    0.25000   1.00
C4       0.52060    0.75000    0.25000   1.00
C3a      0.54130    0.71944    0.26764   1.00
C3a      0.54130    0.78056    0.23236   1.00
H13      0.52750    0.69835    0.27982   1.00
H14      0.52750    0.80165    0.22018   1.00
C3a      0.58220    0.71975    0.26747   1.00
C3a      0.58220    0.78025    0.23253   1.00
H1       0.59620    0.69871    0.27961   1.00
H1       0.59620    0.80129    0.22039   1.00
C2       0.60280    0.75000    0.25000   1.00
C2       0.25000    0.60280    0.25000   1.00
C3a      0.26747    0.58220    0.28025   1.00
C3a      0.23253    0.58220    0.21975   1.00
H1       0.27961    0.59620    0.30129   1.00
H1       0.22039    0.59620    0.19871   1.00
C3a      0.26764    0.54130    0.28056   1.00
C3a      0.23236    0.54130    0.21944   1.00
H11      0.27982    0.52750    0.30165   1.00
H12      0.22018    0.52750    0.19835   1.00
C4       0.25000    0.52060    0.25000   1.00
C4       0.25000    0.47940    0.25000   1.00
C3a      0.23236    0.45870    0.21944   1.00
C3a      0.26764    0.45870    0.28056   1.00
H13      0.22018    0.47250    0.19835   1.00
H14      0.27982    0.47250    0.30165   1.00
C3a      0.23253    0.41780    0.21975   1.00
C3a      0.26747    0.41780    0.28025   1.00
H1       0.22039    0.40380    0.19871   1.00
H1       0.27961    0.40380    0.30129   1.00
C2       0.25000    0.39720    0.25000   1.00
C2       0.25000    0.75000    0.10280   1.00
C3a      0.28025    0.76747    0.08220   1.00
C3a      0.21975    0.73253    0.08220   1.00
H1       0.30129    0.77961    0.09620   1.00
H1       0.19871    0.72039    0.09620   1.00
C3a      0.28056    0.76764    0.04130   1.00
C3a      0.21944    0.73236    0.04130   1.00
H11      0.30165    0.77982    0.02750   1.00
H12      0.19835    0.72018    0.02750   1.00
C4       0.25000    0.75000    0.02060   1.00
C4       0.25000    0.75000    0.97940   1.00
C3a      0.21944    0.73236    0.95870   1.00
C3a      0.28056    0.76764    0.95870   1.00
H13      0.19835    0.72018    0.97250   1.00
H14      0.30165    0.77982    0.97250   1.00
C3a      0.21975    0.73253    0.91780   1.00
C3a      0.28025    0.76747    0.91780   1.00
H1       0.19871    0.72039    0.90380   1.00
H1       0.30129    0.77961    0.90380   1.00
C2       0.25000    0.75000    0.89720   1.00
C2       0.75000    0.25000    0.39720   1.00
C3a      0.78025    0.23253    0.41780   1.00
C3a      0.71975    0.26747    0.41780   1.00
H1       0.80129    0.22039    0.40380   1.00
H1       0.69871    0.27961    0.40380   1.00
C3a      0.78056    0.23236    0.45870   1.00
C3a      0.71944    0.26764    0.45870   1.00
H11      0.80165    0.22018    0.47250   1.00
H12      0.69835    0.27982    0.47250   1.00
C4       0.75000    0.25000    0.47940   1.00
C4       0.75000    0.25000    0.52060   1.00
C3a      0.71944    0.26764    0.54130   1.00
C3a      0.78056    0.23236    0.54130   1.00
H13      0.69835    0.27982    0.52750   1.00
H14      0.80165    0.22018    0.52750   1.00
C3a      0.71975    0.26747    0.58220   1.00
C3a      0.78025    0.23253    0.58220   1.00
H1       0.69871    0.27961    0.59620   1.00
H1       0.80129    0.22039    0.59620   1.00
C2       0.75000    0.25000    0.60280   1.00
C2       0.75000    0.39720    0.25000   1.00
C3a      0.73253    0.41780    0.28025   1.00
C3a      0.76747    0.41780    0.21975   1.00
H1       0.72039    0.40380    0.30129   1.00
H1       0.77961    0.40380    0.19871   1.00
C3a      0.73236    0.45870    0.28056   1.00
C3a      0.76764    0.45870    0.21944   1.00
H11      0.72018    0.47250    0.30165   1.00
H12      0.77982    0.47250    0.19835   1.00
C4       0.75000    0.47940    0.25000   1.00
C4       0.75000    0.52060    0.25000   1.00
C3a      0.76764    0.54130    0.21944   1.00
C3a      0.73236    0.54130    0.28056   1.00
H13      0.77982    0.52750    0.19835   1.00
H14      0.72018    0.52750    0.30165   1.00
C3a      0.76747    0.58220    0.21975   1.00
C3a      0.73253    0.58220    0.28025   1.00
H1       0.77961    0.59620    0.19871   1.00
H1       0.72039    0.59620    0.30129   1.00
C2       0.75000    0.60280    0.25000   1.00
C2       0.60280    0.25000    0.25000   1.00
C3a      0.58220    0.28025    0.26747   1.00
C3a      0.58220    0.21975    0.23253   1.00
H1       0.59620    0.30129    0.27961   1.00
H1       0.59620    0.19871    0.22039   1.00
C3a      0.54130    0.28056    0.26764   1.00
C3a      0.54130    0.21944    0.23236   1.00
H11      0.52750    0.30165    0.27982   1.00
H12      0.52750    0.19835    0.22018   1.00
C4       0.52060    0.25000    0.25000   1.00
C4       0.47940    0.25000    0.25000   1.00
C3a      0.45870    0.21944    0.23236   1.00
C3a      0.45870    0.28056    0.26764   1.00
H13      0.47250    0.19835    0.22018   1.00
H14      0.47250    0.30165    0.27982   1.00
C3a      0.41780    0.21975    0.23253   1.00
C3a      0.41780    0.28025    0.26747   1.00
H1       0.40380    0.19871    0.22039   1.00
H1       0.40380    0.30129    0.27961   1.00
C2       0.39720    0.25000    0.25000   1.00
C2       0.89720    0.25000    0.25000   1.00
C3a      0.91780    0.28025    0.23253   1.00
C3a      0.91780    0.21975    0.26747   1.00
H1       0.90380    0.30129    0.22039   1.00
H1       0.90380    0.19871    0.27961   1.00
C3a      0.95870    0.28056    0.23236   1.00
C3a      0.95870    0.21944    0.26764   1.00
H11      0.97250    0.30165    0.22018   1.00
H12      0.97250    0.19835    0.27982   1.00
C4       0.97940    0.25000    0.25000   1.00
C4       0.02060    0.25000    0.25000   1.00
C3a      0.04130    0.21944    0.26764   1.00
C3a      0.04130    0.28056    0.23236   1.00
H13      0.02750    0.19835    0.27982   1.00
H14      0.02750    0.30165    0.22018   1.00
C3a      0.08220    0.21975    0.26747   1.00
C3a      0.08220    0.28025    0.23253   1.00
H1       0.09620    0.19871    0.27961   1.00
H1       0.09620    0.30129    0.22039   1.00
C2       0.10280    0.25000    0.25000   1.00
C2       0.75000    0.10280    0.25000   1.00
C3a      0.76747    0.08220    0.28025   1.00
C3a      0.73253    0.08220    0.21975   1.00
H1       0.77961    0.09620    0.30129   1.00
H1       0.72039    0.09620    0.19871   1.00
C3a      0.76764    0.04130    0.28056   1.00
C3a      0.73236    0.04130    0.21944   1.00
H11      0.77982    0.02750    0.30165   1.00
H12      0.72018    0.02750    0.19835   1.00
C4       0.75000    0.02060    0.25000   1.00
C4       0.75000    0.97940    0.25000   1.00
C3a      0.73236    0.95870    0.21944   1.00
C3a      0.76764    0.95870    0.28056   1.00
H13      0.72018    0.97250    0.19835   1.00
H14      0.77982    0.97250    0.30165   1.00
C3a      0.73253    0.91780    0.21975   1.00
C3a      0.76747    0.91780    0.28025   1.00
H1       0.72039    0.90380    0.19871   1.00
H1       0.77961    0.90380    0.30129   1.00
C2       0.75000    0.89720    0.25000   1.00
C2       0.75000    0.25000    0.10280   1.00
C3a      0.78025    0.26747    0.08220   1.00
C3a      0.71975    0.23253    0.08220   1.00
H1       0.80129    0.27961    0.09620   1.00
H1       0.69871    0.22039    0.09620   1.00
C3a      0.78056    0.26764    0.04130   1.00
C3a      0.71944    0.23236    0.04130   1.00
H11      0.80165    0.27982    0.02750   1.00
H12      0.69835    0.22018    0.02750   1.00
C4       0.75000    0.25000    0.02060   1.00
C4       0.75000    0.25000    0.97940   1.00
C3a      0.71944    0.23236    0.95870   1.00
C3a      0.78056    0.26764    0.95870   1.00
H13      0.69835    0.22018    0.97250   1.00
H14      0.80165    0.27982    0.97250   1.00
C3a      0.71975    0.23253    0.91780   1.00
C3a      0.78025    0.26747    0.91780   1.00
H1       0.69871    0.22039    0.90380   1.00
H1       0.80129    0.27961    0.90380   1.00
C2       0.75000    0.25000    0.89720   1.00
