data_IRMOF10_SG202_Ligand1_label_i.

_audit_creation_method             'generated by an auxiliary program of Tobunporous'

_symmetry_space_group_name_H-M     'P 1'
_symmetry_Int_Tables_number        1
_symmetry_cell_setting             triclinic

_cell_length_a                    34.2800
_cell_length_b                    34.2800
_cell_length_c                    34.2800
_cell_angle_alpha                 90.0000
_cell_angle_beta                  90.0000
_cell_angle_gamma                 90.0000

loop_
_atom_site_label
_atom_site_fract_x
_atom_site_fract_y
_atom_site_fract_z
_atom_site_occupancy
O1       0.75000    0.75000    0.75000   1.00
Zn1      0.71720    0.78280    0.78280   1.00
Zn1      0.78280    0.71720    0.78280   1.00
Zn1      0.78280    0.78280    0.71720   1.00
Zn1      0.71720    0.71720    0.71720   1.00
O2       0.72650    0.77350    0.83820   1.00
O2       0.72650    0.83820    0.77350   1.00
O2       0.66180    0.77350    0.77350   1.00
O2       0.77350    0.72650    0.83820   1.00
O2       0.83820    0.72650    0.77350   1.00
O2       0.77350    0.66180    0.77350   1.00
O2       0.77350    0.83820    0.72650   1.00
O2       0.83820    0.77350    0.72650   1.00
O2       0.77350    0.77350    0.66180   1.00
O2       0.66180    0.72650    0.72650   1.00
O2       0.72650    0.66180    0.72650   1.00
O2       0.72650    0.72650    0.66180   1.00
C1       0.75000    0.75000    0.85520   1.00
C1       0.75000    0.85520    0.75000   1.00
C1       0.64480    0.75000    0.75000   1.00
C1       0.85520    0.75000    0.75000   1.00
C1       0.75000    0.64480    0.75000   1.00
C1       0.75000    0.75000    0.64480   1.00
O1       0.25000    0.25000    0.75000   1.00
Zn1      0.21720    0.28280    0.78280   1.00
Zn1      0.28280    0.21720    0.78280   1.00
Zn1      0.28280    0.28280    0.71720   1.00
Zn1      0.21720    0.21720    0.71720   1.00
O2       0.22650    0.27350    0.83820   1.00
O2       0.22650    0.33820    0.77350   1.00
O2       0.16180    0.27350    0.77350   1.00
O2       0.27350    0.22650    0.83820   1.00
O2       0.33820    0.22650    0.77350   1.00
O2       0.27350    0.16180    0.77350   1.00
O2       0.27350    0.33820    0.72650   1.00
O2       0.33820    0.27350    0.72650   1.00
O2       0.27350    0.27350    0.66180   1.00
O2       0.16180    0.22650    0.72650   1.00
O2       0.22650    0.16180    0.72650   1.00
O2       0.22650    0.22650    0.66180   1.00
C1       0.25000    0.25000    0.85520   1.00
C1       0.25000    0.35520    0.75000   1.00
C1       0.14480    0.25000    0.75000   1.00
C1       0.35520    0.25000    0.75000   1.00
C1       0.25000    0.14480    0.75000   1.00
C1       0.25000    0.25000    0.64480   1.00
O1       0.25000    0.75000    0.25000   1.00
Zn1      0.21720    0.78280    0.28280   1.00
Zn1      0.28280    0.71720    0.28280   1.00
Zn1      0.28280    0.78280    0.21720   1.00
Zn1      0.21720    0.71720    0.21720   1.00
O2       0.22650    0.77350    0.33820   1.00
O2       0.22650    0.83820    0.27350   1.00
O2       0.16180    0.77350    0.27350   1.00
O2       0.27350    0.72650    0.33820   1.00
O2       0.33820    0.72650    0.27350   1.00
O2       0.27350    0.66180    0.27350   1.00
O2       0.27350    0.83820    0.22650   1.00
O2       0.33820    0.77350    0.22650   1.00
O2       0.27350    0.77350    0.16180   1.00
O2       0.16180    0.72650    0.22650   1.00
O2       0.22650    0.66180    0.22650   1.00
O2       0.22650    0.72650    0.16180   1.00
C1       0.25000    0.75000    0.35520   1.00
C1       0.25000    0.85520    0.25000   1.00
C1       0.14480    0.75000    0.25000   1.00
C1       0.35520    0.75000    0.25000   1.00
C1       0.25000    0.64480    0.25000   1.00
C1       0.25000    0.75000    0.14480   1.00
O1       0.75000    0.25000    0.25000   1.00
Zn1      0.71720    0.28280    0.28280   1.00
Zn1      0.78280    0.21720    0.28280   1.00
Zn1      0.78280    0.28280    0.21720   1.00
Zn1      0.71720    0.21720    0.21720   1.00
O2       0.72650    0.27350    0.33820   1.00
O2       0.72650    0.33820    0.27350   1.00
O2       0.66180    0.27350    0.27350   1.00
O2       0.77350    0.22650    0.33820   1.00
O2       0.83820    0.22650    0.27350   1.00
O2       0.77350    0.16180    0.27350   1.00
O2       0.77350    0.33820    0.22650   1.00
O2       0.83820    0.27350    0.22650   1.00
O2       0.77350    0.27350    0.16180   1.00
O2       0.66180    0.22650    0.22650   1.00
O2       0.72650    0.16180    0.22650   1.00
O2       0.72650    0.22650    0.16180   1.00
C1       0.75000    0.25000    0.35520   1.00
C1       0.75000    0.35520    0.25000   1.00
C1       0.64480    0.25000    0.25000   1.00
C1       0.85520    0.25000    0.25000   1.00
C1       0.75000    0.14480    0.25000   1.00
C1       0.75000    0.25000    0.14480   1.00
O1       0.25000    0.25000    0.25000   1.00
Zn1      0.28280    0.21720    0.21720   1.00
Zn1      0.21720    0.28280    0.21720   1.00
Zn1      0.21720    0.21720    0.28280   1.00
Zn1      0.28280    0.28280    0.28280   1.00
O2       0.27350    0.22650    0.16180   1.00
O2       0.27350    0.16180    0.22650   1.00
O2       0.33820    0.22650    0.22650   1.00
O2       0.22650    0.27350    0.16180   1.00
O2       0.16180    0.27350    0.22650   1.00
O2       0.22650    0.33820    0.22650   1.00
O2       0.22650    0.16180    0.27350   1.00
O2       0.16180    0.22650    0.27350   1.00
O2       0.22650    0.22650    0.33820   1.00
O2       0.33820    0.27350    0.27350   1.00
O2       0.27350    0.33820    0.27350   1.00
O2       0.27350    0.27350    0.33820   1.00
C1       0.25000    0.25000    0.14480   1.00
C1       0.25000    0.14480    0.25000   1.00
C1       0.35520    0.25000    0.25000   1.00
C1       0.14480    0.25000    0.25000   1.00
C1       0.25000    0.35520    0.25000   1.00
C1       0.25000    0.25000    0.35520   1.00
O1       0.75000    0.75000    0.25000   1.00
Zn1      0.78280    0.71720    0.21720   1.00
Zn1      0.71720    0.78280    0.21720   1.00
Zn1      0.71720    0.71720    0.28280   1.00
Zn1      0.78280    0.78280    0.28280   1.00
O2       0.77350    0.72650    0.16180   1.00
O2       0.77350    0.66180    0.22650   1.00
O2       0.83820    0.72650    0.22650   1.00
O2       0.72650    0.77350    0.16180   1.00
O2       0.66180    0.77350    0.22650   1.00
O2       0.72650    0.83820    0.22650   1.00
O2       0.72650    0.66180    0.27350   1.00
O2       0.66180    0.72650    0.27350   1.00
O2       0.72650    0.72650    0.33820   1.00
O2       0.83820    0.77350    0.27350   1.00
O2       0.77350    0.83820    0.27350   1.00
O2       0.77350    0.77350    0.33820   1.00
C1       0.75000    0.75000    0.14480   1.00
C1       0.75000    0.64480    0.25000   1.00
C1       0.85520    0.75000    0.25000   1.00
C1       0.64480    0.75000    0.25000   1.00
C1       0.75000    0.85520    0.25000   1.00
C1       0.75000    0.75000    0.35520   1.00
O1       0.75000    0.25000    0.75000   1.00
Zn1      0.78280    0.21720    0.71720   1.00
Zn1      0.71720    0.28280    0.71720   1.00
Zn1      0.71720    0.21720    0.78280   1.00
Zn1      0.78280    0.28280    0.78280   1.00
O2       0.77350    0.22650    0.66180   1.00
O2       0.77350    0.16180    0.72650   1.00
O2       0.83820    0.22650    0.72650   1.00
O2       0.72650    0.27350    0.66180   1.00
O2       0.66180    0.27350    0.72650   1.00
O2       0.72650    0.33820    0.72650   1.00
O2       0.72650    0.16180    0.77350   1.00
O2       0.66180    0.22650    0.77350   1.00
O2       0.72650    0.22650    0.83820   1.00
O2       0.83820    0.27350    0.77350   1.00
O2       0.77350    0.33820    0.77350   1.00
O2       0.77350    0.27350    0.83820   1.00
C1       0.75000    0.25000    0.64480   1.00
C1       0.75000    0.14480    0.75000   1.00
C1       0.85520    0.25000    0.75000   1.00
C1       0.64480    0.25000    0.75000   1.00
C1       0.75000    0.35520    0.75000   1.00
C1       0.75000    0.25000    0.85520   1.00
O1       0.25000    0.75000    0.75000   1.00
Zn1      0.28280    0.71720    0.71720   1.00
Zn1      0.21720    0.78280    0.71720   1.00
Zn1      0.21720    0.71720    0.78280   1.00
Zn1      0.28280    0.78280    0.78280   1.00
O2       0.27350    0.72650    0.66180   1.00
O2       0.27350    0.66180    0.72650   1.00
O2       0.33820    0.72650    0.72650   1.00
O2       0.22650    0.77350    0.66180   1.00
O2       0.16180    0.77350    0.72650   1.00
O2       0.22650    0.83820    0.72650   1.00
O2       0.22650    0.66180    0.77350   1.00
O2       0.16180    0.72650    0.77350   1.00
O2       0.22650    0.72650    0.83820   1.00
O2       0.33820    0.77350    0.77350   1.00
O2       0.27350    0.83820    0.77350   1.00
O2       0.27350    0.77350    0.83820   1.00
C1       0.25000    0.75000    0.64480   1.00
C1       0.25000    0.64480    0.75000   1.00
C1       0.35520    0.75000    0.75000   1.00
C1       0.14480    0.75000    0.75000   1.00
C1       0.25000    0.85520    0.75000   1.00
C1       0.25000    0.75000    0.85520   1.00
C2       0.75154    0.75256    0.89757   1.00
C3a      0.78212    0.76942    0.91884   1.00
H1       0.80622    0.78324    0.90369   1.00
C3a      0.72035    0.73468    0.91704   1.00
H1       0.69673    0.72166    0.90051   1.00
C3b      0.78185    0.76860    0.95938   1.00
C5       0.81519    0.78700    0.98144   1.00
H2       0.82990    0.76481    0.99984   1.00
H2       0.83737    0.79981    0.96161   1.00
H2       0.80411    0.81062    1.00060   1.00
C3b      0.71940    0.73348    0.95756   1.00
C5       0.68543    0.71402    0.97767   1.00
H2       0.67015    0.73528    0.99670   1.00
H2       0.66387    0.70223    0.95655   1.00
H2       0.69594    0.68947    0.99594   1.00
C4       0.75032    0.75053    0.97873   1.00
C4       0.74968    0.74947    1.02127   1.00
C3b      0.76695    0.71774    1.04101   1.00
C5       0.78622    0.68461    1.01937   1.00
H2       0.81058    0.69586    1.00129   1.00
H2       0.79822    0.66223    1.03949   1.00
H2       0.76477    0.67010    0.99995   1.00
C3b      0.73180    0.78019    1.04204   1.00
C5       0.71317    0.81437    1.02152   1.00
H2       0.68937    0.80405    1.00217   1.00
H2       0.70055    0.83573    1.04235   1.00
H2       0.73517    0.82982    1.00350   1.00
C3a      0.76615    0.71706    1.08155   1.00
H1       0.77934    0.69281    1.09700   1.00
C3a      0.73138    0.77883    1.08257   1.00
H1       0.71771    0.80229    1.09881   1.00
C2       0.74846    0.74744    1.10243   1.00
C2       0.75256    0.89757    0.75154   1.00
C3a      0.76942    0.91884    0.78212   1.00
H1       0.78324    0.90369    0.80622   1.00
C3a      0.73468    0.91704    0.72035   1.00
H1       0.72166    0.90051    0.69673   1.00
C3b      0.76860    0.95938    0.78185   1.00
C5       0.78700    0.98144    0.81519   1.00
H2       0.76481    0.99984    0.82990   1.00
H2       0.79981    0.96161    0.83737   1.00
H2       0.81062    1.00060    0.80411   1.00
C3b      0.73348    0.95756    0.71940   1.00
C5       0.71402    0.97767    0.68543   1.00
H2       0.73528    0.99670    0.67015   1.00
H2       0.70223    0.95655    0.66387   1.00
H2       0.68947    0.99594    0.69594   1.00
C4       0.75053    0.97873    0.75032   1.00
C4       0.74947    1.02127    0.74968   1.00
C3b      0.71774    1.04101    0.76695   1.00
C5       0.68461    1.01937    0.78622   1.00
H2       0.69586    1.00129    0.81058   1.00
H2       0.66223    1.03949    0.79822   1.00
H2       0.67010    0.99995    0.76477   1.00
C3b      0.78019    1.04204    0.73180   1.00
C5       0.81437    1.02152    0.71317   1.00
H2       0.80405    1.00217    0.68937   1.00
H2       0.83573    1.04235    0.70055   1.00
H2       0.82982    1.00350    0.73517   1.00
C3a      0.71706    1.08155    0.76615   1.00
H1       0.69281    1.09700    0.77934   1.00
C3a      0.77883    1.08257    0.73138   1.00
H1       0.80229    1.09881    0.71771   1.00
C2       0.74744    1.10243    0.74846   1.00
C2       0.60243    0.75154    0.74744   1.00
C3a      0.58116    0.78212    0.73058   1.00
H1       0.59631    0.80622    0.71676   1.00
C3a      0.58296    0.72035    0.76532   1.00
H1       0.59949    0.69673    0.77834   1.00
C3b      0.54062    0.78185    0.73140   1.00
C5       0.51856    0.81519    0.71300   1.00
H2       0.50016    0.82990    0.73519   1.00
H2       0.53839    0.83737    0.70019   1.00
H2       0.49940    0.80411    0.68938   1.00
C3b      0.54244    0.71940    0.76652   1.00
C5       0.52233    0.68543    0.78598   1.00
H2       0.50330    0.67015    0.76472   1.00
H2       0.54345    0.66387    0.79777   1.00
H2       0.50406    0.69594    0.81053   1.00
C4       0.52127    0.75032    0.74947   1.00
C4       0.47873    0.74968    0.75053   1.00
C3b      0.45899    0.76695    0.78226   1.00
C5       0.48063    0.78622    0.81539   1.00
H2       0.49871    0.81058    0.80414   1.00
H2       0.46051    0.79822    0.83777   1.00
H2       0.50005    0.76477    0.82990   1.00
C3b      0.45796    0.73180    0.71981   1.00
C5       0.47848    0.71317    0.68563   1.00
H2       0.49783    0.68937    0.69595   1.00
H2       0.45765    0.70055    0.66427   1.00
H2       0.49650    0.73517    0.67018   1.00
C3a      0.41845    0.76615    0.78294   1.00
H1       0.40300    0.77934    0.80719   1.00
C3a      0.41743    0.73138    0.72117   1.00
H1       0.40119    0.71771    0.69771   1.00
C2       0.39757    0.74846    0.75256   1.00
C2       0.89757    0.75154    0.75256   1.00
C3a      0.91884    0.78212    0.76942   1.00
H1       0.90369    0.80622    0.78324   1.00
C3a      0.91704    0.72035    0.73468   1.00
H1       0.90051    0.69673    0.72166   1.00
C3b      0.95938    0.78185    0.76860   1.00
C5       0.98144    0.81519    0.78700   1.00
H2       0.99984    0.82990    0.76481   1.00
H2       0.96161    0.83737    0.79981   1.00
H2       1.00060    0.80411    0.81062   1.00
C3b      0.95756    0.71940    0.73348   1.00
C5       0.97767    0.68543    0.71402   1.00
H2       0.99670    0.67015    0.73528   1.00
H2       0.95655    0.66387    0.70223   1.00
H2       0.99594    0.69594    0.68947   1.00
C4       0.97873    0.75032    0.75053   1.00
C4       1.02127    0.74968    0.74947   1.00
C3b      1.04101    0.76695    0.71774   1.00
C5       1.01937    0.78622    0.68461   1.00
H2       1.00129    0.81058    0.69586   1.00
H2       1.03949    0.79822    0.66223   1.00
H2       0.99995    0.76477    0.67010   1.00
C3b      1.04204    0.73180    0.78019   1.00
C5       1.02152    0.71317    0.81437   1.00
H2       1.00217    0.68937    0.80405   1.00
H2       1.04235    0.70055    0.83573   1.00
H2       1.00350    0.73517    0.82982   1.00
C3a      1.08155    0.76615    0.71706   1.00
H1       1.09700    0.77934    0.69281   1.00
C3a      1.08257    0.73138    0.77883   1.00
H1       1.09881    0.71771    0.80229   1.00
C2       1.10243    0.74846    0.74744   1.00
C2       0.74744    0.60243    0.75154   1.00
C3a      0.73058    0.58116    0.78212   1.00
H1       0.71676    0.59631    0.80622   1.00
C3a      0.76532    0.58296    0.72035   1.00
H1       0.77834    0.59949    0.69673   1.00
C3b      0.73140    0.54062    0.78185   1.00
C5       0.71300    0.51856    0.81519   1.00
H2       0.73519    0.50016    0.82990   1.00
H2       0.70019    0.53839    0.83737   1.00
H2       0.68938    0.49940    0.80411   1.00
C3b      0.76652    0.54244    0.71940   1.00
C5       0.78598    0.52233    0.68543   1.00
H2       0.76472    0.50330    0.67015   1.00
H2       0.79777    0.54345    0.66387   1.00
H2       0.81053    0.50406    0.69594   1.00
C4       0.74947    0.52127    0.75032   1.00
C4       0.75053    0.47873    0.74968   1.00
C3b      0.78226    0.45899    0.76695   1.00
C5       0.81539    0.48063    0.78622   1.00
H2       0.80414    0.49871    0.81058   1.00
H2       0.83777    0.46051    0.79822   1.00
H2       0.82990    0.50005    0.76477   1.00
C3b      0.71981    0.45796    0.73180   1.00
C5       0.68563    0.47848    0.71317   1.00
H2       0.69595    0.49783    0.68937   1.00
H2       0.66427    0.45765    0.70055   1.00
H2       0.67018    0.49650    0.73517   1.00
C3a      0.78294    0.41845    0.76615   1.00
H1       0.80719    0.40300    0.77934   1.00
C3a      0.72117    0.41743    0.73138   1.00
H1       0.69771    0.40119    0.71771   1.00
C2       0.75256    0.39757    0.74846   1.00
C2       0.75154    0.74744    0.60243   1.00
C3a      0.78212    0.73058    0.58116   1.00
H1       0.80622    0.71676    0.59631   1.00
C3a      0.72035    0.76532    0.58296   1.00
H1       0.69673    0.77834    0.59949   1.00
C3b      0.78185    0.73140    0.54062   1.00
C5       0.81519    0.71300    0.51856   1.00
H2       0.82990    0.73519    0.50016   1.00
H2       0.83737    0.70019    0.53839   1.00
H2       0.80411    0.68938    0.49940   1.00
C3b      0.71940    0.76652    0.54244   1.00
C5       0.68543    0.78598    0.52233   1.00
H2       0.67015    0.76472    0.50330   1.00
H2       0.66387    0.79777    0.54345   1.00
H2       0.69594    0.81053    0.50406   1.00
C4       0.75032    0.74947    0.52127   1.00
C4       0.74968    0.75053    0.47873   1.00
C3b      0.76695    0.78226    0.45899   1.00
C5       0.78622    0.81539    0.48063   1.00
H2       0.81058    0.80414    0.49871   1.00
H2       0.79822    0.83777    0.46051   1.00
H2       0.76477    0.82990    0.50005   1.00
C3b      0.73180    0.71981    0.45796   1.00
C5       0.71317    0.68563    0.47848   1.00
H2       0.68937    0.69595    0.49783   1.00
H2       0.70055    0.66427    0.45765   1.00
H2       0.73517    0.67018    0.49650   1.00
C3a      0.76615    0.78294    0.41845   1.00
H1       0.77934    0.80719    0.40300   1.00
C3a      0.73138    0.72117    0.41743   1.00
H1       0.71771    0.69771    0.40119   1.00
C2       0.74846    0.75256    0.39757   1.00
C2       0.25154    0.25256    0.89757   1.00
C3a      0.28212    0.26942    0.91884   1.00
H1       0.30622    0.28324    0.90369   1.00
C3a      0.22035    0.23468    0.91704   1.00
H1       0.19673    0.22166    0.90051   1.00
C3b      0.28185    0.26860    0.95938   1.00
C5       0.31519    0.28700    0.98144   1.00
H2       0.32990    0.26481    0.99984   1.00
H2       0.33737    0.29981    0.96161   1.00
H2       0.30411    0.31062    1.00060   1.00
C3b      0.21940    0.23348    0.95756   1.00
C5       0.18543    0.21402    0.97767   1.00
H2       0.17015    0.23528    0.99670   1.00
H2       0.16387    0.20223    0.95655   1.00
H2       0.19594    0.18947    0.99594   1.00
C4       0.25032    0.25053    0.97873   1.00
C4       0.24968    0.24947    1.02127   1.00
C3b      0.26695    0.21774    1.04101   1.00
C5       0.28622    0.18461    1.01937   1.00
H2       0.31058    0.19586    1.00129   1.00
H2       0.29822    0.16223    1.03949   1.00
H2       0.26477    0.17010    0.99995   1.00
C3b      0.23180    0.28019    1.04204   1.00
C5       0.21317    0.31437    1.02152   1.00
H2       0.18937    0.30405    1.00217   1.00
H2       0.20055    0.33573    1.04235   1.00
H2       0.23517    0.32982    1.00350   1.00
C3a      0.26615    0.21706    1.08155   1.00
H1       0.27934    0.19281    1.09700   1.00
C3a      0.23138    0.27883    1.08257   1.00
H1       0.21771    0.30229    1.09881   1.00
C2       0.24846    0.24744    1.10243   1.00
C2       0.25256    0.39757    0.75154   1.00
C3a      0.26942    0.41884    0.78212   1.00
H1       0.28324    0.40369    0.80622   1.00
C3a      0.23468    0.41704    0.72035   1.00
H1       0.22166    0.40051    0.69673   1.00
C3b      0.26860    0.45938    0.78185   1.00
C5       0.28700    0.48144    0.81519   1.00
H2       0.26481    0.49984    0.82990   1.00
H2       0.29981    0.46161    0.83737   1.00
H2       0.31062    0.50060    0.80411   1.00
C3b      0.23348    0.45756    0.71940   1.00
C5       0.21402    0.47767    0.68543   1.00
H2       0.23528    0.49670    0.67015   1.00
H2       0.20223    0.45655    0.66387   1.00
H2       0.18947    0.49594    0.69594   1.00
C4       0.25053    0.47873    0.75032   1.00
C4       0.24947    0.52127    0.74968   1.00
C3b      0.21774    0.54101    0.76695   1.00
C5       0.18461    0.51937    0.78622   1.00
H2       0.19586    0.50129    0.81058   1.00
H2       0.16223    0.53949    0.79822   1.00
H2       0.17010    0.49995    0.76477   1.00
C3b      0.28019    0.54204    0.73180   1.00
C5       0.31437    0.52152    0.71317   1.00
H2       0.30405    0.50217    0.68937   1.00
H2       0.33573    0.54235    0.70055   1.00
H2       0.32982    0.50350    0.73517   1.00
C3a      0.21706    0.58155    0.76615   1.00
H1       0.19281    0.59700    0.77934   1.00
C3a      0.27883    0.58257    0.73138   1.00
H1       0.30229    0.59881    0.71771   1.00
C2       0.24744    0.60243    0.74846   1.00
C2       0.10243    0.25154    0.74744   1.00
C3a      0.08116    0.28212    0.73058   1.00
H1       0.09631    0.30622    0.71676   1.00
C3a      0.08296    0.22035    0.76532   1.00
H1       0.09949    0.19673    0.77834   1.00
C3b      0.04062    0.28185    0.73140   1.00
C5       0.01856    0.31519    0.71300   1.00
H2       0.00016    0.32990    0.73519   1.00
H2       0.03839    0.33737    0.70019   1.00
H2       -0.00060   0.30411    0.68938   1.00
C3b      0.04244    0.21940    0.76652   1.00
C5       0.02233    0.18543    0.78598   1.00
H2       0.00330    0.17015    0.76472   1.00
H2       0.04345    0.16387    0.79777   1.00
H2       0.00406    0.19594    0.81053   1.00
C4       0.02127    0.25032    0.74947   1.00
C4       -0.02127   0.24968    0.75053   1.00
C3b      -0.04101   0.26695    0.78226   1.00
C5       -0.01937   0.28622    0.81539   1.00
H2       -0.00129   0.31058    0.80414   1.00
H2       -0.03949   0.29822    0.83777   1.00
H2       0.00005    0.26477    0.82990   1.00
C3b      -0.04204   0.23180    0.71981   1.00
C5       -0.02152   0.21317    0.68563   1.00
H2       -0.00217   0.18937    0.69595   1.00
H2       -0.04235   0.20055    0.66427   1.00
H2       -0.00350   0.23517    0.67018   1.00
C3a      -0.08155   0.26615    0.78294   1.00
H1       -0.09700   0.27934    0.80719   1.00
C3a      -0.08257   0.23138    0.72117   1.00
H1       -0.09881   0.21771    0.69771   1.00
C2       -0.10243   0.24846    0.75256   1.00
C2       0.39757    0.25154    0.75256   1.00
C3a      0.41884    0.28212    0.76942   1.00
H1       0.40369    0.30622    0.78324   1.00
C3a      0.41704    0.22035    0.73468   1.00
H1       0.40051    0.19673    0.72166   1.00
C3b      0.45938    0.28185    0.76860   1.00
C5       0.48144    0.31519    0.78700   1.00
H2       0.49984    0.32990    0.76481   1.00
H2       0.46161    0.33737    0.79981   1.00
H2       0.50060    0.30411    0.81062   1.00
C3b      0.45756    0.21940    0.73348   1.00
C5       0.47767    0.18543    0.71402   1.00
H2       0.49670    0.17015    0.73528   1.00
H2       0.45655    0.16387    0.70223   1.00
H2       0.49594    0.19594    0.68947   1.00
C4       0.47873    0.25032    0.75053   1.00
C4       0.52127    0.24968    0.74947   1.00
C3b      0.54101    0.26695    0.71774   1.00
C5       0.51937    0.28622    0.68461   1.00
H2       0.50129    0.31058    0.69586   1.00
H2       0.53949    0.29822    0.66223   1.00
H2       0.49995    0.26477    0.67010   1.00
C3b      0.54204    0.23180    0.78019   1.00
C5       0.52152    0.21317    0.81437   1.00
H2       0.50217    0.18937    0.80405   1.00
H2       0.54235    0.20055    0.83573   1.00
H2       0.50350    0.23517    0.82982   1.00
C3a      0.58155    0.26615    0.71706   1.00
H1       0.59700    0.27934    0.69281   1.00
C3a      0.58257    0.23138    0.77883   1.00
H1       0.59881    0.21771    0.80229   1.00
C2       0.60243    0.24846    0.74744   1.00
C2       0.24744    0.10243    0.75154   1.00
C3a      0.23058    0.08116    0.78212   1.00
H1       0.21676    0.09631    0.80622   1.00
C3a      0.26532    0.08296    0.72035   1.00
H1       0.27834    0.09949    0.69673   1.00
C3b      0.23140    0.04062    0.78185   1.00
C5       0.21300    0.01856    0.81519   1.00
H2       0.23519    0.00016    0.82990   1.00
H2       0.20019    0.03839    0.83737   1.00
H2       0.18938    -0.00060   0.80411   1.00
C3b      0.26652    0.04244    0.71940   1.00
C5       0.28598    0.02233    0.68543   1.00
H2       0.26472    0.00330    0.67015   1.00
H2       0.29777    0.04345    0.66387   1.00
H2       0.31053    0.00406    0.69594   1.00
C4       0.24947    0.02127    0.75032   1.00
C4       0.25053    -0.02127   0.74968   1.00
C3b      0.28226    -0.04101   0.76695   1.00
C5       0.31539    -0.01937   0.78622   1.00
H2       0.30414    -0.00129   0.81058   1.00
H2       0.33777    -0.03949   0.79822   1.00
H2       0.32990    0.00005    0.76477   1.00
C3b      0.21981    -0.04204   0.73180   1.00
C5       0.18563    -0.02152   0.71317   1.00
H2       0.19595    -0.00217   0.68937   1.00
H2       0.16427    -0.04235   0.70055   1.00
H2       0.17018    -0.00350   0.73517   1.00
C3a      0.28294    -0.08155   0.76615   1.00
H1       0.30719    -0.09700   0.77934   1.00
C3a      0.22117    -0.08257   0.73138   1.00
H1       0.19771    -0.09881   0.71771   1.00
C2       0.25256    -0.10243   0.74846   1.00
C2       0.25154    0.24744    0.60243   1.00
C3a      0.28212    0.23058    0.58116   1.00
H1       0.30622    0.21676    0.59631   1.00
C3a      0.22035    0.26532    0.58296   1.00
H1       0.19673    0.27834    0.59949   1.00
C3b      0.28185    0.23140    0.54062   1.00
C5       0.31519    0.21300    0.51856   1.00
H2       0.32990    0.23519    0.50016   1.00
H2       0.33737    0.20019    0.53839   1.00
H2       0.30411    0.18938    0.49940   1.00
C3b      0.21940    0.26652    0.54244   1.00
C5       0.18543    0.28598    0.52233   1.00
H2       0.17015    0.26472    0.50330   1.00
H2       0.16387    0.29777    0.54345   1.00
H2       0.19594    0.31053    0.50406   1.00
C4       0.25032    0.24947    0.52127   1.00
C4       0.24968    0.25053    0.47873   1.00
C3b      0.26695    0.28226    0.45899   1.00
C5       0.28622    0.31539    0.48063   1.00
H2       0.31058    0.30414    0.49871   1.00
H2       0.29822    0.33777    0.46051   1.00
H2       0.26477    0.32990    0.50005   1.00
C3b      0.23180    0.21981    0.45796   1.00
C5       0.21317    0.18563    0.47848   1.00
H2       0.18937    0.19595    0.49783   1.00
H2       0.20055    0.16427    0.45765   1.00
H2       0.23517    0.17018    0.49650   1.00
C3a      0.26615    0.28294    0.41845   1.00
H1       0.27934    0.30719    0.40300   1.00
C3a      0.23138    0.22117    0.41743   1.00
H1       0.21771    0.19771    0.40119   1.00
C2       0.24846    0.25256    0.39757   1.00
C2       0.25154    0.75256    0.39757   1.00
C3a      0.28212    0.76942    0.41884   1.00
H1       0.30622    0.78324    0.40369   1.00
C3a      0.22035    0.73468    0.41704   1.00
H1       0.19673    0.72166    0.40051   1.00
C3b      0.28185    0.76860    0.45938   1.00
C5       0.31519    0.78700    0.48144   1.00
H2       0.32990    0.76481    0.49984   1.00
H2       0.33737    0.79981    0.46161   1.00
H2       0.30411    0.81062    0.50060   1.00
C3b      0.21940    0.73348    0.45756   1.00
C5       0.18543    0.71402    0.47767   1.00
H2       0.17015    0.73528    0.49670   1.00
H2       0.16387    0.70223    0.45655   1.00
H2       0.19594    0.68947    0.49594   1.00
C4       0.25032    0.75053    0.47873   1.00
C4       0.24968    0.74947    0.52127   1.00
C3b      0.26695    0.71774    0.54101   1.00
C5       0.28622    0.68461    0.51937   1.00
H2       0.31058    0.69586    0.50129   1.00
H2       0.29822    0.66223    0.53949   1.00
H2       0.26477    0.67010    0.49995   1.00
C3b      0.23180    0.78019    0.54204   1.00
C5       0.21317    0.81437    0.52152   1.00
H2       0.18937    0.80405    0.50217   1.00
H2       0.20055    0.83573    0.54235   1.00
H2       0.23517    0.82982    0.50350   1.00
C3a      0.26615    0.71706    0.58155   1.00
H1       0.27934    0.69281    0.59700   1.00
C3a      0.23138    0.77883    0.58257   1.00
H1       0.21771    0.80229    0.59881   1.00
C2       0.24846    0.74744    0.60243   1.00
C2       0.25256    0.89757    0.25154   1.00
C3a      0.26942    0.91884    0.28212   1.00
H1       0.28324    0.90369    0.30622   1.00
C3a      0.23468    0.91704    0.22035   1.00
H1       0.22166    0.90051    0.19673   1.00
C3b      0.26860    0.95938    0.28185   1.00
C5       0.28700    0.98144    0.31519   1.00
H2       0.26481    0.99984    0.32990   1.00
H2       0.29981    0.96161    0.33737   1.00
H2       0.31062    1.00060    0.30411   1.00
C3b      0.23348    0.95756    0.21940   1.00
C5       0.21402    0.97767    0.18543   1.00
H2       0.23528    0.99670    0.17015   1.00
H2       0.20223    0.95655    0.16387   1.00
H2       0.18947    0.99594    0.19594   1.00
C4       0.25053    0.97873    0.25032   1.00
C4       0.24947    1.02127    0.24968   1.00
C3b      0.21774    1.04101    0.26695   1.00
C5       0.18461    1.01937    0.28622   1.00
H2       0.19586    1.00129    0.31058   1.00
H2       0.16223    1.03949    0.29822   1.00
H2       0.17010    0.99995    0.26477   1.00
C3b      0.28019    1.04204    0.23180   1.00
C5       0.31437    1.02152    0.21317   1.00
H2       0.30405    1.00217    0.18937   1.00
H2       0.33573    1.04235    0.20055   1.00
H2       0.32982    1.00350    0.23517   1.00
C3a      0.21706    1.08155    0.26615   1.00
H1       0.19281    1.09700    0.27934   1.00
C3a      0.27883    1.08257    0.23138   1.00
H1       0.30229    1.09881    0.21771   1.00
C2       0.24744    1.10243    0.24846   1.00
C2       0.10243    0.75154    0.24744   1.00
C3a      0.08116    0.78212    0.23058   1.00
H1       0.09631    0.80622    0.21676   1.00
C3a      0.08296    0.72035    0.26532   1.00
H1       0.09949    0.69673    0.27834   1.00
C3b      0.04062    0.78185    0.23140   1.00
C5       0.01856    0.81519    0.21300   1.00
H2       0.00016    0.82990    0.23519   1.00
H2       0.03839    0.83737    0.20019   1.00
H2       -0.00060   0.80411    0.18938   1.00
C3b      0.04244    0.71940    0.26652   1.00
C5       0.02233    0.68543    0.28598   1.00
H2       0.00330    0.67015    0.26472   1.00
H2       0.04345    0.66387    0.29777   1.00
H2       0.00406    0.69594    0.31053   1.00
C4       0.02127    0.75032    0.24947   1.00
C4       -0.02127   0.74968    0.25053   1.00
C3b      -0.04101   0.76695    0.28226   1.00
C5       -0.01937   0.78622    0.31539   1.00
H2       -0.00129   0.81058    0.30414   1.00
H2       -0.03949   0.79822    0.33777   1.00
H2       0.00005    0.76477    0.32990   1.00
C3b      -0.04204   0.73180    0.21981   1.00
C5       -0.02152   0.71317    0.18563   1.00
H2       -0.00217   0.68937    0.19595   1.00
H2       -0.04235   0.70055    0.16427   1.00
H2       -0.00350   0.73517    0.17018   1.00
C3a      -0.08155   0.76615    0.28294   1.00
H1       -0.09700   0.77934    0.30719   1.00
C3a      -0.08257   0.73138    0.22117   1.00
H1       -0.09881   0.71771    0.19771   1.00
C2       -0.10243   0.74846    0.25256   1.00
C2       0.39757    0.75154    0.25256   1.00
C3a      0.41884    0.78212    0.26942   1.00
H1       0.40369    0.80622    0.28324   1.00
C3a      0.41704    0.72035    0.23468   1.00
H1       0.40051    0.69673    0.22166   1.00
C3b      0.45938    0.78185    0.26860   1.00
C5       0.48144    0.81519    0.28700   1.00
H2       0.49984    0.82990    0.26481   1.00
H2       0.46161    0.83737    0.29981   1.00
H2       0.50060    0.80411    0.31062   1.00
C3b      0.45756    0.71940    0.23348   1.00
C5       0.47767    0.68543    0.21402   1.00
H2       0.49670    0.67015    0.23528   1.00
H2       0.45655    0.66387    0.20223   1.00
H2       0.49594    0.69594    0.18947   1.00
C4       0.47873    0.75032    0.25053   1.00
C4       0.52127    0.74968    0.24947   1.00
C3b      0.54101    0.76695    0.21774   1.00
C5       0.51937    0.78622    0.18461   1.00
H2       0.50129    0.81058    0.19586   1.00
H2       0.53949    0.79822    0.16223   1.00
H2       0.49995    0.76477    0.17010   1.00
C3b      0.54204    0.73180    0.28019   1.00
C5       0.52152    0.71317    0.31437   1.00
H2       0.50217    0.68937    0.30405   1.00
H2       0.54235    0.70055    0.33573   1.00
H2       0.50350    0.73517    0.32982   1.00
C3a      0.58155    0.76615    0.21706   1.00
H1       0.59700    0.77934    0.19281   1.00
C3a      0.58257    0.73138    0.27883   1.00
H1       0.59881    0.71771    0.30229   1.00
C2       0.60243    0.74846    0.24744   1.00
C2       0.24744    0.60243    0.25154   1.00
C3a      0.23058    0.58116    0.28212   1.00
H1       0.21676    0.59631    0.30622   1.00
C3a      0.26532    0.58296    0.22035   1.00
H1       0.27834    0.59949    0.19673   1.00
C3b      0.23140    0.54062    0.28185   1.00
C5       0.21300    0.51856    0.31519   1.00
H2       0.23519    0.50016    0.32990   1.00
H2       0.20019    0.53839    0.33737   1.00
H2       0.18938    0.49940    0.30411   1.00
C3b      0.26652    0.54244    0.21940   1.00
C5       0.28598    0.52233    0.18543   1.00
H2       0.26472    0.50330    0.17015   1.00
H2       0.29777    0.54345    0.16387   1.00
H2       0.31053    0.50406    0.19594   1.00
C4       0.24947    0.52127    0.25032   1.00
C4       0.25053    0.47873    0.24968   1.00
C3b      0.28226    0.45899    0.26695   1.00
C5       0.31539    0.48063    0.28622   1.00
H2       0.30414    0.49871    0.31058   1.00
H2       0.33777    0.46051    0.29822   1.00
H2       0.32990    0.50005    0.26477   1.00
C3b      0.21981    0.45796    0.23180   1.00
C5       0.18563    0.47848    0.21317   1.00
H2       0.19595    0.49783    0.18937   1.00
H2       0.16427    0.45765    0.20055   1.00
H2       0.17018    0.49650    0.23517   1.00
C3a      0.28294    0.41845    0.26615   1.00
H1       0.30719    0.40300    0.27934   1.00
C3a      0.22117    0.41743    0.23138   1.00
H1       0.19771    0.40119    0.21771   1.00
C2       0.25256    0.39757    0.24846   1.00
C2       0.25154    0.74744    0.10243   1.00
C3a      0.28212    0.73058    0.08116   1.00
H1       0.30622    0.71676    0.09631   1.00
C3a      0.22035    0.76532    0.08296   1.00
H1       0.19673    0.77834    0.09949   1.00
C3b      0.28185    0.73140    0.04062   1.00
C5       0.31519    0.71300    0.01856   1.00
H2       0.32990    0.73519    0.00016   1.00
H2       0.33737    0.70019    0.03839   1.00
H2       0.30411    0.68938    -0.00060   1.00
C3b      0.21940    0.76652    0.04244   1.00
C5       0.18543    0.78598    0.02233   1.00
H2       0.17015    0.76472    0.00330   1.00
H2       0.16387    0.79777    0.04345   1.00
H2       0.19594    0.81053    0.00406   1.00
C4       0.25032    0.74947    0.02127   1.00
C4       0.24968    0.75053    -0.02127   1.00
C3b      0.26695    0.78226    -0.04101   1.00
C5       0.28622    0.81539    -0.01937   1.00
H2       0.31058    0.80414    -0.00129   1.00
H2       0.29822    0.83777    -0.03949   1.00
H2       0.26477    0.82990    0.00005   1.00
C3b      0.23180    0.71981    -0.04204   1.00
C5       0.21317    0.68563    -0.02152   1.00
H2       0.18937    0.69595    -0.00217   1.00
H2       0.20055    0.66427    -0.04235   1.00
H2       0.23517    0.67018    -0.00350   1.00
C3a      0.26615    0.78294    -0.08155   1.00
H1       0.27934    0.80719    -0.09700   1.00
C3a      0.23138    0.72117    -0.08257   1.00
H1       0.21771    0.69771    -0.09881   1.00
C2       0.24846    0.75256    -0.10243   1.00
C2       0.75154    0.25256    0.39757   1.00
C3a      0.78212    0.26942    0.41884   1.00
H1       0.80622    0.28324    0.40369   1.00
C3a      0.72035    0.23468    0.41704   1.00
H1       0.69673    0.22166    0.40051   1.00
C3b      0.78185    0.26860    0.45938   1.00
C5       0.81519    0.28700    0.48144   1.00
H2       0.82990    0.26481    0.49984   1.00
H2       0.83737    0.29981    0.46161   1.00
H2       0.80411    0.31062    0.50060   1.00
C3b      0.71940    0.23348    0.45756   1.00
C5       0.68543    0.21402    0.47767   1.00
H2       0.67015    0.23528    0.49670   1.00
H2       0.66387    0.20223    0.45655   1.00
H2       0.69594    0.18947    0.49594   1.00
C4       0.75032    0.25053    0.47873   1.00
C4       0.74968    0.24947    0.52127   1.00
C3b      0.76695    0.21774    0.54101   1.00
C5       0.78622    0.18461    0.51937   1.00
H2       0.81058    0.19586    0.50129   1.00
H2       0.79822    0.16223    0.53949   1.00
H2       0.76477    0.17010    0.49995   1.00
C3b      0.73180    0.28019    0.54204   1.00
C5       0.71317    0.31437    0.52152   1.00
H2       0.68937    0.30405    0.50217   1.00
H2       0.70055    0.33573    0.54235   1.00
H2       0.73517    0.32982    0.50350   1.00
C3a      0.76615    0.21706    0.58155   1.00
H1       0.77934    0.19281    0.59700   1.00
C3a      0.73138    0.27883    0.58257   1.00
H1       0.71771    0.30229    0.59881   1.00
C2       0.74846    0.24744    0.60243   1.00
C2       0.75256    0.39757    0.25154   1.00
C3a      0.76942    0.41884    0.28212   1.00
H1       0.78324    0.40369    0.30622   1.00
C3a      0.73468    0.41704    0.22035   1.00
H1       0.72166    0.40051    0.19673   1.00
C3b      0.76860    0.45938    0.28185   1.00
C5       0.78700    0.48144    0.31519   1.00
H2       0.76481    0.49984    0.32990   1.00
H2       0.79981    0.46161    0.33737   1.00
H2       0.81062    0.50060    0.30411   1.00
C3b      0.73348    0.45756    0.21940   1.00
C5       0.71402    0.47767    0.18543   1.00
H2       0.73528    0.49670    0.17015   1.00
H2       0.70223    0.45655    0.16387   1.00
H2       0.68947    0.49594    0.19594   1.00
C4       0.75053    0.47873    0.25032   1.00
C4       0.74947    0.52127    0.24968   1.00
C3b      0.71774    0.54101    0.26695   1.00
C5       0.68461    0.51937    0.28622   1.00
H2       0.69586    0.50129    0.31058   1.00
H2       0.66223    0.53949    0.29822   1.00
H2       0.67010    0.49995    0.26477   1.00
C3b      0.78019    0.54204    0.23180   1.00
C5       0.81437    0.52152    0.21317   1.00
H2       0.80405    0.50217    0.18937   1.00
H2       0.83573    0.54235    0.20055   1.00
H2       0.82982    0.50350    0.23517   1.00
C3a      0.71706    0.58155    0.26615   1.00
H1       0.69281    0.59700    0.27934   1.00
C3a      0.77883    0.58257    0.23138   1.00
H1       0.80229    0.59881    0.21771   1.00
C2       0.74744    0.60243    0.24846   1.00
C2       0.60243    0.25154    0.24744   1.00
C3a      0.58116    0.28212    0.23058   1.00
H1       0.59631    0.30622    0.21676   1.00
C3a      0.58296    0.22035    0.26532   1.00
H1       0.59949    0.19673    0.27834   1.00
C3b      0.54062    0.28185    0.23140   1.00
C5       0.51856    0.31519    0.21300   1.00
H2       0.50016    0.32990    0.23519   1.00
H2       0.53839    0.33737    0.20019   1.00
H2       0.49940    0.30411    0.18938   1.00
C3b      0.54244    0.21940    0.26652   1.00
C5       0.52233    0.18543    0.28598   1.00
H2       0.50330    0.17015    0.26472   1.00
H2       0.54345    0.16387    0.29777   1.00
H2       0.50406    0.19594    0.31053   1.00
C4       0.52127    0.25032    0.24947   1.00
C4       0.47873    0.24968    0.25053   1.00
C3b      0.45899    0.26695    0.28226   1.00
C5       0.48063    0.28622    0.31539   1.00
H2       0.49871    0.31058    0.30414   1.00
H2       0.46051    0.29822    0.33777   1.00
H2       0.50005    0.26477    0.32990   1.00
C3b      0.45796    0.23180    0.21981   1.00
C5       0.47848    0.21317    0.18563   1.00
H2       0.49783    0.18937    0.19595   1.00
H2       0.45765    0.20055    0.16427   1.00
H2       0.49650    0.23517    0.17018   1.00
C3a      0.41845    0.26615    0.28294   1.00
H1       0.40300    0.27934    0.30719   1.00
C3a      0.41743    0.23138    0.22117   1.00
H1       0.40119    0.21771    0.19771   1.00
C2       0.39757    0.24846    0.25256   1.00
C2       0.89757    0.25154    0.25256   1.00
C3a      0.91884    0.28212    0.26942   1.00
H1       0.90369    0.30622    0.28324   1.00
C3a      0.91704    0.22035    0.23468   1.00
H1       0.90051    0.19673    0.22166   1.00
C3b      0.95938    0.28185    0.26860   1.00
C5       0.98144    0.31519    0.28700   1.00
H2       0.99984    0.32990    0.26481   1.00
H2       0.96161    0.33737    0.29981   1.00
H2       1.00060    0.30411    0.31062   1.00
C3b      0.95756    0.21940    0.23348   1.00
C5       0.97767    0.18543    0.21402   1.00
H2       0.99670    0.17015    0.23528   1.00
H2       0.95655    0.16387    0.20223   1.00
H2       0.99594    0.19594    0.18947   1.00
C4       0.97873    0.25032    0.25053   1.00
C4       1.02127    0.24968    0.24947   1.00
C3b      1.04101    0.26695    0.21774   1.00
C5       1.01937    0.28622    0.18461   1.00
H2       1.00129    0.31058    0.19586   1.00
H2       1.03949    0.29822    0.16223   1.00
H2       0.99995    0.26477    0.17010   1.00
C3b      1.04204    0.23180    0.28019   1.00
C5       1.02152    0.21317    0.31437   1.00
H2       1.00217    0.18937    0.30405   1.00
H2       1.04235    0.20055    0.33573   1.00
H2       1.00350    0.23517    0.32982   1.00
C3a      1.08155    0.26615    0.21706   1.00
H1       1.09700    0.27934    0.19281   1.00
C3a      1.08257    0.23138    0.27883   1.00
H1       1.09881    0.21771    0.30229   1.00
C2       1.10243    0.24846    0.24744   1.00
C2       0.74744    0.10243    0.25154   1.00
C3a      0.73058    0.08116    0.28212   1.00
H1       0.71676    0.09631    0.30622   1.00
C3a      0.76532    0.08296    0.22035   1.00
H1       0.77834    0.09949    0.19673   1.00
C3b      0.73140    0.04062    0.28185   1.00
C5       0.71300    0.01856    0.31519   1.00
H2       0.73519    0.00016    0.32990   1.00
H2       0.70019    0.03839    0.33737   1.00
H2       0.68938    -0.00060   0.30411   1.00
C3b      0.76652    0.04244    0.21940   1.00
C5       0.78598    0.02233    0.18543   1.00
H2       0.76472    0.00330    0.17015   1.00
H2       0.79777    0.04345    0.16387   1.00
H2       0.81053    0.00406    0.19594   1.00
C4       0.74947    0.02127    0.25032   1.00
C4       0.75053    -0.02127   0.24968   1.00
C3b      0.78226    -0.04101   0.26695   1.00
C5       0.81539    -0.01937   0.28622   1.00
H2       0.80414    -0.00129   0.31058   1.00
H2       0.83777    -0.03949   0.29822   1.00
H2       0.82990    0.00005    0.26477   1.00
C3b      0.71981    -0.04204   0.23180   1.00
C5       0.68563    -0.02152   0.21317   1.00
H2       0.69595    -0.00217   0.18937   1.00
H2       0.66427    -0.04235   0.20055   1.00
H2       0.67018    -0.00350   0.23517   1.00
C3a      0.78294    -0.08155   0.26615   1.00
H1       0.80719    -0.09700   0.27934   1.00
C3a      0.72117    -0.08257   0.23138   1.00
H1       0.69771    -0.09881   0.21771   1.00
C2       0.75256    -0.10243   0.24846   1.00
C2       0.75154    0.24744    0.10243   1.00
C3a      0.78212    0.23058    0.08116   1.00
H1       0.80622    0.21676    0.09631   1.00
C3a      0.72035    0.26532    0.08296   1.00
H1       0.69673    0.27834    0.09949   1.00
C3b      0.78185    0.23140    0.04062   1.00
C5       0.81519    0.21300    0.01856   1.00
H2       0.82990    0.23519    0.00016   1.00
H2       0.83737    0.20019    0.03839   1.00
H2       0.80411    0.18938    -0.00060   1.00
C3b      0.71940    0.26652    0.04244   1.00
C5       0.68543    0.28598    0.02233   1.00
H2       0.67015    0.26472    0.00330   1.00
H2       0.66387    0.29777    0.04345   1.00
H2       0.69594    0.31053    0.00406   1.00
C4       0.75032    0.24947    0.02127   1.00
C4       0.74968    0.25053    -0.02127   1.00
C3b      0.76695    0.28226    -0.04101   1.00
C5       0.78622    0.31539    -0.01937   1.00
H2       0.81058    0.30414    -0.00129   1.00
H2       0.79822    0.33777    -0.03949   1.00
H2       0.76477    0.32990    0.00005   1.00
C3b      0.73180    0.21981    -0.04204   1.00
C5       0.71317    0.18563    -0.02152   1.00
H2       0.68937    0.19595    -0.00217   1.00
H2       0.70055    0.16427    -0.04235   1.00
H2       0.73517    0.17018    -0.00350   1.00
C3a      0.76615    0.28294    -0.08155   1.00
H1       0.77934    0.30719    -0.09700   1.00
C3a      0.73138    0.22117    -0.08257   1.00
H1       0.71771    0.19771    -0.09881   1.00
C2       0.74846    0.25256    -0.10243   1.00
