data_IRMOF10_SG202_Ligand3_label_g.

_audit_creation_method             'generated by an auxiliary program of Tobunporous'

_symmetry_space_group_name_H-M     'P 1'
_symmetry_Int_Tables_number        1
_symmetry_cell_setting             triclinic

_cell_length_a                    34.2800
_cell_length_b                    34.2800
_cell_length_c                    34.2800
_cell_angle_alpha                 90.0000
_cell_angle_beta                  90.0000
_cell_angle_gamma                 90.0000

loop_
_atom_site_label
_atom_site_fract_x
_atom_site_fract_y
_atom_site_fract_z
_atom_site_occupancy
O1       0.75000    0.75000    0.75000   1.00
Zn1      0.71720    0.78280    0.78280   1.00
Zn1      0.78280    0.71720    0.78280   1.00
Zn1      0.78280    0.78280    0.71720   1.00
Zn1      0.71720    0.71720    0.71720   1.00
O2       0.72650    0.77350    0.83820   1.00
O2       0.72650    0.83820    0.77350   1.00
O2       0.66180    0.77350    0.77350   1.00
O2       0.77350    0.72650    0.83820   1.00
O2       0.83820    0.72650    0.77350   1.00
O2       0.77350    0.66180    0.77350   1.00
O2       0.77350    0.83820    0.72650   1.00
O2       0.83820    0.77350    0.72650   1.00
O2       0.77350    0.77350    0.66180   1.00
O2       0.66180    0.72650    0.72650   1.00
O2       0.72650    0.66180    0.72650   1.00
O2       0.72650    0.72650    0.66180   1.00
C1       0.75000    0.75000    0.85520   1.00
C1       0.75000    0.85520    0.75000   1.00
C1       0.64480    0.75000    0.75000   1.00
C1       0.85520    0.75000    0.75000   1.00
C1       0.75000    0.64480    0.75000   1.00
C1       0.75000    0.75000    0.64480   1.00
O1       0.25000    0.25000    0.75000   1.00
Zn1      0.21720    0.28280    0.78280   1.00
Zn1      0.28280    0.21720    0.78280   1.00
Zn1      0.28280    0.28280    0.71720   1.00
Zn1      0.21720    0.21720    0.71720   1.00
O2       0.22650    0.27350    0.83820   1.00
O2       0.22650    0.33820    0.77350   1.00
O2       0.16180    0.27350    0.77350   1.00
O2       0.27350    0.22650    0.83820   1.00
O2       0.33820    0.22650    0.77350   1.00
O2       0.27350    0.16180    0.77350   1.00
O2       0.27350    0.33820    0.72650   1.00
O2       0.33820    0.27350    0.72650   1.00
O2       0.27350    0.27350    0.66180   1.00
O2       0.16180    0.22650    0.72650   1.00
O2       0.22650    0.16180    0.72650   1.00
O2       0.22650    0.22650    0.66180   1.00
C1       0.25000    0.25000    0.85520   1.00
C1       0.25000    0.35520    0.75000   1.00
C1       0.14480    0.25000    0.75000   1.00
C1       0.35520    0.25000    0.75000   1.00
C1       0.25000    0.14480    0.75000   1.00
C1       0.25000    0.25000    0.64480   1.00
O1       0.25000    0.75000    0.25000   1.00
Zn1      0.21720    0.78280    0.28280   1.00
Zn1      0.28280    0.71720    0.28280   1.00
Zn1      0.28280    0.78280    0.21720   1.00
Zn1      0.21720    0.71720    0.21720   1.00
O2       0.22650    0.77350    0.33820   1.00
O2       0.22650    0.83820    0.27350   1.00
O2       0.16180    0.77350    0.27350   1.00
O2       0.27350    0.72650    0.33820   1.00
O2       0.33820    0.72650    0.27350   1.00
O2       0.27350    0.66180    0.27350   1.00
O2       0.27350    0.83820    0.22650   1.00
O2       0.33820    0.77350    0.22650   1.00
O2       0.27350    0.77350    0.16180   1.00
O2       0.16180    0.72650    0.22650   1.00
O2       0.22650    0.66180    0.22650   1.00
O2       0.22650    0.72650    0.16180   1.00
C1       0.25000    0.75000    0.35520   1.00
C1       0.25000    0.85520    0.25000   1.00
C1       0.14480    0.75000    0.25000   1.00
C1       0.35520    0.75000    0.25000   1.00
C1       0.25000    0.64480    0.25000   1.00
C1       0.25000    0.75000    0.14480   1.00
O1       0.75000    0.25000    0.25000   1.00
Zn1      0.71720    0.28280    0.28280   1.00
Zn1      0.78280    0.21720    0.28280   1.00
Zn1      0.78280    0.28280    0.21720   1.00
Zn1      0.71720    0.21720    0.21720   1.00
O2       0.72650    0.27350    0.33820   1.00
O2       0.72650    0.33820    0.27350   1.00
O2       0.66180    0.27350    0.27350   1.00
O2       0.77350    0.22650    0.33820   1.00
O2       0.83820    0.22650    0.27350   1.00
O2       0.77350    0.16180    0.27350   1.00
O2       0.77350    0.33820    0.22650   1.00
O2       0.83820    0.27350    0.22650   1.00
O2       0.77350    0.27350    0.16180   1.00
O2       0.66180    0.22650    0.22650   1.00
O2       0.72650    0.16180    0.22650   1.00
O2       0.72650    0.22650    0.16180   1.00
C1       0.75000    0.25000    0.35520   1.00
C1       0.75000    0.35520    0.25000   1.00
C1       0.64480    0.25000    0.25000   1.00
C1       0.85520    0.25000    0.25000   1.00
C1       0.75000    0.14480    0.25000   1.00
C1       0.75000    0.25000    0.14480   1.00
O1       0.25000    0.25000    0.25000   1.00
Zn1      0.28280    0.21720    0.21720   1.00
Zn1      0.21720    0.28280    0.21720   1.00
Zn1      0.21720    0.21720    0.28280   1.00
Zn1      0.28280    0.28280    0.28280   1.00
O2       0.27350    0.22650    0.16180   1.00
O2       0.27350    0.16180    0.22650   1.00
O2       0.33820    0.22650    0.22650   1.00
O2       0.22650    0.27350    0.16180   1.00
O2       0.16180    0.27350    0.22650   1.00
O2       0.22650    0.33820    0.22650   1.00
O2       0.22650    0.16180    0.27350   1.00
O2       0.16180    0.22650    0.27350   1.00
O2       0.22650    0.22650    0.33820   1.00
O2       0.33820    0.27350    0.27350   1.00
O2       0.27350    0.33820    0.27350   1.00
O2       0.27350    0.27350    0.33820   1.00
C1       0.25000    0.25000    0.14480   1.00
C1       0.25000    0.14480    0.25000   1.00
C1       0.35520    0.25000    0.25000   1.00
C1       0.14480    0.25000    0.25000   1.00
C1       0.25000    0.35520    0.25000   1.00
C1       0.25000    0.25000    0.35520   1.00
O1       0.75000    0.75000    0.25000   1.00
Zn1      0.78280    0.71720    0.21720   1.00
Zn1      0.71720    0.78280    0.21720   1.00
Zn1      0.71720    0.71720    0.28280   1.00
Zn1      0.78280    0.78280    0.28280   1.00
O2       0.77350    0.72650    0.16180   1.00
O2       0.77350    0.66180    0.22650   1.00
O2       0.83820    0.72650    0.22650   1.00
O2       0.72650    0.77350    0.16180   1.00
O2       0.66180    0.77350    0.22650   1.00
O2       0.72650    0.83820    0.22650   1.00
O2       0.72650    0.66180    0.27350   1.00
O2       0.66180    0.72650    0.27350   1.00
O2       0.72650    0.72650    0.33820   1.00
O2       0.83820    0.77350    0.27350   1.00
O2       0.77350    0.83820    0.27350   1.00
O2       0.77350    0.77350    0.33820   1.00
C1       0.75000    0.75000    0.14480   1.00
C1       0.75000    0.64480    0.25000   1.00
C1       0.85520    0.75000    0.25000   1.00
C1       0.64480    0.75000    0.25000   1.00
C1       0.75000    0.85520    0.25000   1.00
C1       0.75000    0.75000    0.35520   1.00
O1       0.75000    0.25000    0.75000   1.00
Zn1      0.78280    0.21720    0.71720   1.00
Zn1      0.71720    0.28280    0.71720   1.00
Zn1      0.71720    0.21720    0.78280   1.00
Zn1      0.78280    0.28280    0.78280   1.00
O2       0.77350    0.22650    0.66180   1.00
O2       0.77350    0.16180    0.72650   1.00
O2       0.83820    0.22650    0.72650   1.00
O2       0.72650    0.27350    0.66180   1.00
O2       0.66180    0.27350    0.72650   1.00
O2       0.72650    0.33820    0.72650   1.00
O2       0.72650    0.16180    0.77350   1.00
O2       0.66180    0.22650    0.77350   1.00
O2       0.72650    0.22650    0.83820   1.00
O2       0.83820    0.27350    0.77350   1.00
O2       0.77350    0.33820    0.77350   1.00
O2       0.77350    0.27350    0.83820   1.00
C1       0.75000    0.25000    0.64480   1.00
C1       0.75000    0.14480    0.75000   1.00
C1       0.85520    0.25000    0.75000   1.00
C1       0.64480    0.25000    0.75000   1.00
C1       0.75000    0.35520    0.75000   1.00
C1       0.75000    0.25000    0.85520   1.00
O1       0.25000    0.75000    0.75000   1.00
Zn1      0.28280    0.71720    0.71720   1.00
Zn1      0.21720    0.78280    0.71720   1.00
Zn1      0.21720    0.71720    0.78280   1.00
Zn1      0.28280    0.78280    0.78280   1.00
O2       0.27350    0.72650    0.66180   1.00
O2       0.27350    0.66180    0.72650   1.00
O2       0.33820    0.72650    0.72650   1.00
O2       0.22650    0.77350    0.66180   1.00
O2       0.16180    0.77350    0.72650   1.00
O2       0.22650    0.83820    0.72650   1.00
O2       0.22650    0.66180    0.77350   1.00
O2       0.16180    0.72650    0.77350   1.00
O2       0.22650    0.72650    0.83820   1.00
O2       0.33820    0.77350    0.77350   1.00
O2       0.27350    0.83820    0.77350   1.00
O2       0.27350    0.77350    0.83820   1.00
C1       0.25000    0.75000    0.64480   1.00
C1       0.25000    0.64480    0.75000   1.00
C1       0.35520    0.75000    0.75000   1.00
C1       0.14480    0.75000    0.75000   1.00
C1       0.25000    0.85520    0.75000   1.00
C1       0.25000    0.75000    0.85520   1.00
C4       0.75302    0.74961    1.02084   1.00
C4       0.75245    0.74915    0.97912   1.00
C3       0.77960    0.72746    1.04364   1.00
C3       0.77595    0.72389    0.95616   1.00
C3       0.72519    0.77296    1.04123   1.00
C3       0.72718    0.77534    0.95886   1.00
C2       0.75102    0.75062    1.10512   1.00
C2       0.74898    0.74938    0.89488   1.00
C3       0.77851    0.72777    1.08462   1.00
C3       0.77454    0.72424    0.91519   1.00
C3       0.72504    0.77343    1.08258   1.00
C3       0.72499    0.77406    0.91762   1.00
H1       0.80062    0.71057    1.03115   1.00
H1       0.79460    0.70433    0.96852   1.00
C5       0.69780    0.79581    1.02020   1.00
C5       0.70397    0.80242    0.97980   1.00
H1       0.79828    0.71094    1.09955   1.00
H1       0.79245    0.70555    0.90010   1.00
H1       0.70563    0.79114    1.09680   1.00
H1       0.70496    0.79122    0.90368   1.00
O3       0.66709    0.81303    1.03961   1.00
O3       0.68540    0.83289    0.96099   1.00
Si1      0.62522    0.79046    1.04247   1.00
Si1      0.70966    0.87304    0.95279   1.00
C6       0.60265    0.82304    1.07538   1.00
C6       0.60330    0.79273    0.99598   1.00
C6       0.62890    0.74315    1.06253   1.00
C6       0.75923    0.87496    0.96693   1.00
C6       0.70618    0.87855    0.90198   1.00
C6       0.68344    0.91141    0.97477   1.00
C6       0.62748    0.83488    1.11194   1.00
H2       0.60017    0.84958    1.05791   1.00
C6       0.56052    0.81494    1.09147   1.00
H2       0.61686    0.81874    0.98358   1.00
C6       0.61170    0.75904    0.96634   1.00
C6       0.55828    0.79996    0.99336   1.00
H2       0.64700    0.74818    1.08831   1.00
C6       0.59036    0.72378    1.07772   1.00
C6       0.64943    0.70991    1.03849   1.00
C6       0.76940    0.86705    1.01071   1.00
C6       0.79060    0.85266    0.94225   1.00
H2       0.76642    0.90562    0.96212   1.00
H2       0.72445    0.85514    0.89051   1.00
C6       0.66483    0.87169    0.88378   1.00
C6       0.72207    0.91734    0.88393   1.00
H2       0.66045    0.91809    0.95375   1.00
C6       0.66153    0.90137    1.01336   1.00
C6       0.70531    0.95080    0.98244   1.00
H2       0.65570    0.84704    1.10346   1.00
H2       0.63283    0.80980    1.13090   1.00
H2       0.61269    0.85730    1.12917   1.00
H2       0.54511    0.84251    1.09608   1.00
H2       0.54292    0.79739    1.07178   1.00
H2       0.56100    0.80004    1.11964   1.00
H2       0.60364    0.76778    0.93672   1.00
H2       0.64251    0.75144    0.96532   1.00
H2       0.59496    0.73292    0.97352   1.00
H2       0.54986    0.82661    1.00862   1.00
H2       0.54888    0.80373    0.96308   1.00
H2       0.54196    0.77541    1.00550   1.00
H2       0.56787    0.72367    1.05514   1.00
H2       0.59497    0.69359    1.08708   1.00
H2       0.57921    0.73878    1.10332   1.00
H2       0.62915    0.69493    1.01902   1.00
H2       0.67343    0.72018    1.02068   1.00
H2       0.66140    0.68790    1.05828   1.00
H2       0.77146    0.83594    1.01688   1.00
H2       0.79766    0.87989    1.01809   1.00
H2       0.74801    0.87970    1.03048   1.00
H2       0.82005    0.86109    0.95125   1.00
H2       0.78854    0.82118    0.94574   1.00
H2       0.78850    0.85943    0.91122   1.00
H2       0.66691    0.86917    0.85202   1.00
H2       0.65181    0.84456    0.89435   1.00
H2       0.64479    0.89555    0.89035   1.00
H2       0.75150    0.92392    0.89416   1.00
H2       0.72360    0.91500    0.85212   1.00
H2       0.70314    0.94202    0.89085   1.00
H2       0.68148    0.89265    1.03656   1.00
H2       0.64421    0.92601    1.02381   1.00
H2       0.64143    0.87741    1.00834   1.00
H2       0.68472    0.97383    0.99044   1.00
H2       0.72637    0.94799    1.00622   1.00
H2       0.72079    0.96093    0.95657   1.00
C4       0.74961    1.02084    0.75302   1.00
C4       0.74915    0.97912    0.75245   1.00
C3       0.72746    1.04364    0.77960   1.00
C3       0.72389    0.95616    0.77595   1.00
C3       0.77296    1.04123    0.72519   1.00
C3       0.77534    0.95886    0.72718   1.00
C2       0.75062    1.10512    0.75102   1.00
C2       0.74938    0.89488    0.74898   1.00
C3       0.72777    1.08462    0.77851   1.00
C3       0.72424    0.91519    0.77454   1.00
C3       0.77343    1.08258    0.72504   1.00
C3       0.77406    0.91762    0.72499   1.00
H1       0.71057    1.03115    0.80062   1.00
H1       0.70433    0.96852    0.79460   1.00
C5       0.79581    1.02020    0.69780   1.00
C5       0.80242    0.97980    0.70397   1.00
H1       0.71094    1.09955    0.79828   1.00
H1       0.70555    0.90010    0.79245   1.00
H1       0.79114    1.09680    0.70563   1.00
H1       0.79122    0.90368    0.70496   1.00
O3       0.81303    1.03961    0.66709   1.00
O3       0.83289    0.96099    0.68540   1.00
Si1      0.79046    1.04247    0.62522   1.00
Si1      0.87304    0.95279    0.70966   1.00
C6       0.82304    1.07538    0.60265   1.00
C6       0.79273    0.99598    0.60330   1.00
C6       0.74315    1.06253    0.62890   1.00
C6       0.87496    0.96693    0.75923   1.00
C6       0.87855    0.90198    0.70618   1.00
C6       0.91141    0.97477    0.68344   1.00
C6       0.83488    1.11194    0.62748   1.00
H2       0.84958    1.05791    0.60017   1.00
C6       0.81494    1.09147    0.56052   1.00
H2       0.81874    0.98358    0.61686   1.00
C6       0.75904    0.96634    0.61170   1.00
C6       0.79996    0.99336    0.55828   1.00
H2       0.74818    1.08831    0.64700   1.00
C6       0.72378    1.07772    0.59036   1.00
C6       0.70991    1.03849    0.64943   1.00
C6       0.86705    1.01071    0.76940   1.00
C6       0.85266    0.94225    0.79060   1.00
H2       0.90562    0.96212    0.76642   1.00
H2       0.85514    0.89051    0.72445   1.00
C6       0.87169    0.88378    0.66483   1.00
C6       0.91734    0.88393    0.72207   1.00
H2       0.91809    0.95375    0.66045   1.00
C6       0.90137    1.01336    0.66153   1.00
C6       0.95080    0.98244    0.70531   1.00
H2       0.84704    1.10346    0.65570   1.00
H2       0.80980    1.13090    0.63283   1.00
H2       0.85730    1.12917    0.61269   1.00
H2       0.84251    1.09608    0.54511   1.00
H2       0.79739    1.07178    0.54292   1.00
H2       0.80004    1.11964    0.56100   1.00
H2       0.76778    0.93672    0.60364   1.00
H2       0.75144    0.96532    0.64251   1.00
H2       0.73292    0.97352    0.59496   1.00
H2       0.82661    1.00862    0.54986   1.00
H2       0.80373    0.96308    0.54888   1.00
H2       0.77541    1.00550    0.54196   1.00
H2       0.72367    1.05514    0.56787   1.00
H2       0.69359    1.08708    0.59497   1.00
H2       0.73878    1.10332    0.57921   1.00
H2       0.69493    1.01902    0.62915   1.00
H2       0.72018    1.02068    0.67343   1.00
H2       0.68790    1.05828    0.66140   1.00
H2       0.83594    1.01688    0.77146   1.00
H2       0.87989    1.01809    0.79766   1.00
H2       0.87970    1.03048    0.74801   1.00
H2       0.86109    0.95125    0.82005   1.00
H2       0.82118    0.94574    0.78854   1.00
H2       0.85943    0.91122    0.78850   1.00
H2       0.86917    0.85202    0.66691   1.00
H2       0.84456    0.89435    0.65181   1.00
H2       0.89555    0.89035    0.64479   1.00
H2       0.92392    0.89416    0.75150   1.00
H2       0.91500    0.85212    0.72360   1.00
H2       0.94202    0.89085    0.70314   1.00
H2       0.89265    1.03656    0.68148   1.00
H2       0.92601    1.02381    0.64421   1.00
H2       0.87741    1.00834    0.64143   1.00
H2       0.97383    0.99044    0.68472   1.00
H2       0.94799    1.00622    0.72637   1.00
H2       0.96093    0.95657    0.72079   1.00
C4       0.47916    0.75302    0.75039   1.00
C4       0.52088    0.75245    0.75085   1.00
C3       0.45636    0.77960    0.77254   1.00
C3       0.54384    0.77595    0.77611   1.00
C3       0.45877    0.72519    0.72704   1.00
C3       0.54114    0.72718    0.72466   1.00
C2       0.39488    0.75102    0.74938   1.00
C2       0.60512    0.74898    0.75062   1.00
C3       0.41538    0.77851    0.77223   1.00
C3       0.58481    0.77454    0.77576   1.00
C3       0.41742    0.72504    0.72657   1.00
C3       0.58238    0.72499    0.72594   1.00
H1       0.46885    0.80062    0.78943   1.00
H1       0.53148    0.79460    0.79567   1.00
C5       0.47980    0.69780    0.70419   1.00
C5       0.52020    0.70397    0.69758   1.00
H1       0.40045    0.79828    0.78906   1.00
H1       0.59990    0.79245    0.79445   1.00
H1       0.40320    0.70563    0.70886   1.00
H1       0.59632    0.70496    0.70878   1.00
O3       0.46039    0.66709    0.68697   1.00
O3       0.53901    0.68540    0.66711   1.00
Si1      0.45753    0.62522    0.70954   1.00
Si1      0.54721    0.70966    0.62696   1.00
C6       0.42462    0.60265    0.67696   1.00
C6       0.50402    0.60330    0.70727   1.00
C6       0.43747    0.62890    0.75685   1.00
C6       0.53307    0.75923    0.62504   1.00
C6       0.59802    0.70618    0.62145   1.00
C6       0.52523    0.68344    0.58859   1.00
C6       0.38806    0.62748    0.66512   1.00
H2       0.44209    0.60017    0.65042   1.00
C6       0.40853    0.56052    0.68506   1.00
H2       0.51642    0.61686    0.68126   1.00
C6       0.53366    0.61170    0.74096   1.00
C6       0.50664    0.55828    0.70004   1.00
H2       0.41169    0.64700    0.75182   1.00
C6       0.42228    0.59036    0.77622   1.00
C6       0.46151    0.64943    0.79009   1.00
C6       0.48929    0.76940    0.63295   1.00
C6       0.55775    0.79060    0.64734   1.00
H2       0.53788    0.76642    0.59438   1.00
H2       0.60949    0.72445    0.64486   1.00
C6       0.61622    0.66483    0.62831   1.00
C6       0.61607    0.72207    0.58266   1.00
H2       0.54625    0.66045    0.58191   1.00
C6       0.48664    0.66153    0.59863   1.00
C6       0.51756    0.70531    0.54920   1.00
H2       0.39654    0.65570    0.65296   1.00
H2       0.36910    0.63283    0.69020   1.00
H2       0.37083    0.61269    0.64270   1.00
H2       0.40392    0.54511    0.65749   1.00
H2       0.42822    0.54292    0.70261   1.00
H2       0.38036    0.56100    0.69996   1.00
H2       0.56328    0.60364    0.73222   1.00
H2       0.53468    0.64251    0.74856   1.00
H2       0.52648    0.59496    0.76708   1.00
H2       0.49138    0.54986    0.67339   1.00
H2       0.53692    0.54888    0.69627   1.00
H2       0.49450    0.54196    0.72459   1.00
H2       0.44486    0.56787    0.77633   1.00
H2       0.41292    0.59497    0.80641   1.00
H2       0.39668    0.57921    0.76122   1.00
H2       0.48098    0.62915    0.80507   1.00
H2       0.47932    0.67343    0.77982   1.00
H2       0.44172    0.66140    0.81210   1.00
H2       0.48312    0.77146    0.66406   1.00
H2       0.48191    0.79766    0.62011   1.00
H2       0.46952    0.74801    0.62030   1.00
H2       0.54875    0.82005    0.63891   1.00
H2       0.55426    0.78854    0.67882   1.00
H2       0.58878    0.78850    0.64057   1.00
H2       0.64798    0.66691    0.63083   1.00
H2       0.60565    0.65181    0.65544   1.00
H2       0.60965    0.64479    0.60445   1.00
H2       0.60584    0.75150    0.57608   1.00
H2       0.64788    0.72360    0.58500   1.00
H2       0.60915    0.70314    0.55798   1.00
H2       0.46344    0.68148    0.60735   1.00
H2       0.47619    0.64421    0.57399   1.00
H2       0.49166    0.64143    0.62259   1.00
H2       0.50956    0.68472    0.52617   1.00
H2       0.49378    0.72637    0.55201   1.00
H2       0.54343    0.72079    0.53907   1.00
C4       1.02084    0.75302    0.74961   1.00
C4       0.97912    0.75245    0.74915   1.00
C3       1.04364    0.77960    0.72746   1.00
C3       0.95616    0.77595    0.72389   1.00
C3       1.04123    0.72519    0.77296   1.00
C3       0.95886    0.72718    0.77534   1.00
C2       1.10512    0.75102    0.75062   1.00
C2       0.89488    0.74898    0.74938   1.00
C3       1.08462    0.77851    0.72777   1.00
C3       0.91519    0.77454    0.72424   1.00
C3       1.08258    0.72504    0.77343   1.00
C3       0.91762    0.72499    0.77406   1.00
H1       1.03115    0.80062    0.71057   1.00
H1       0.96852    0.79460    0.70433   1.00
C5       1.02020    0.69780    0.79581   1.00
C5       0.97980    0.70397    0.80242   1.00
H1       1.09955    0.79828    0.71094   1.00
H1       0.90010    0.79245    0.70555   1.00
H1       1.09680    0.70563    0.79114   1.00
H1       0.90368    0.70496    0.79122   1.00
O3       1.03961    0.66709    0.81303   1.00
O3       0.96099    0.68540    0.83289   1.00
Si1      1.04247    0.62522    0.79046   1.00
Si1      0.95279    0.70966    0.87304   1.00
C6       1.07538    0.60265    0.82304   1.00
C6       0.99598    0.60330    0.79273   1.00
C6       1.06253    0.62890    0.74315   1.00
C6       0.96693    0.75923    0.87496   1.00
C6       0.90198    0.70618    0.87855   1.00
C6       0.97477    0.68344    0.91141   1.00
C6       1.11194    0.62748    0.83488   1.00
H2       1.05791    0.60017    0.84958   1.00
C6       1.09147    0.56052    0.81494   1.00
H2       0.98358    0.61686    0.81874   1.00
C6       0.96634    0.61170    0.75904   1.00
C6       0.99336    0.55828    0.79996   1.00
H2       1.08831    0.64700    0.74818   1.00
C6       1.07772    0.59036    0.72378   1.00
C6       1.03849    0.64943    0.70991   1.00
C6       1.01071    0.76940    0.86705   1.00
C6       0.94225    0.79060    0.85266   1.00
H2       0.96212    0.76642    0.90562   1.00
H2       0.89051    0.72445    0.85514   1.00
C6       0.88378    0.66483    0.87169   1.00
C6       0.88393    0.72207    0.91734   1.00
H2       0.95375    0.66045    0.91809   1.00
C6       1.01336    0.66153    0.90137   1.00
C6       0.98244    0.70531    0.95080   1.00
H2       1.10346    0.65570    0.84704   1.00
H2       1.13090    0.63283    0.80980   1.00
H2       1.12917    0.61269    0.85730   1.00
H2       1.09608    0.54511    0.84251   1.00
H2       1.07178    0.54292    0.79739   1.00
H2       1.11964    0.56100    0.80004   1.00
H2       0.93672    0.60364    0.76778   1.00
H2       0.96532    0.64251    0.75144   1.00
H2       0.97352    0.59496    0.73292   1.00
H2       1.00862    0.54986    0.82661   1.00
H2       0.96308    0.54888    0.80373   1.00
H2       1.00550    0.54196    0.77541   1.00
H2       1.05514    0.56787    0.72367   1.00
H2       1.08708    0.59497    0.69359   1.00
H2       1.10332    0.57921    0.73878   1.00
H2       1.01902    0.62915    0.69493   1.00
H2       1.02068    0.67343    0.72018   1.00
H2       1.05828    0.66140    0.68790   1.00
H2       1.01688    0.77146    0.83594   1.00
H2       1.01809    0.79766    0.87989   1.00
H2       1.03048    0.74801    0.87970   1.00
H2       0.95125    0.82005    0.86109   1.00
H2       0.94574    0.78854    0.82118   1.00
H2       0.91122    0.78850    0.85943   1.00
H2       0.85202    0.66691    0.86917   1.00
H2       0.89435    0.65181    0.84456   1.00
H2       0.89035    0.64479    0.89555   1.00
H2       0.89416    0.75150    0.92392   1.00
H2       0.85212    0.72360    0.91500   1.00
H2       0.89085    0.70314    0.94202   1.00
H2       1.03656    0.68148    0.89265   1.00
H2       1.02381    0.64421    0.92601   1.00
H2       1.00834    0.64143    0.87741   1.00
H2       0.99044    0.68472    0.97383   1.00
H2       1.00622    0.72637    0.94799   1.00
H2       0.95657    0.72079    0.96093   1.00
C4       0.75039    0.47916    0.75302   1.00
C4       0.75085    0.52088    0.75245   1.00
C3       0.77254    0.45636    0.77960   1.00
C3       0.77611    0.54384    0.77595   1.00
C3       0.72704    0.45877    0.72519   1.00
C3       0.72466    0.54114    0.72718   1.00
C2       0.74938    0.39488    0.75102   1.00
C2       0.75062    0.60512    0.74898   1.00
C3       0.77223    0.41538    0.77851   1.00
C3       0.77576    0.58481    0.77454   1.00
C3       0.72657    0.41742    0.72504   1.00
C3       0.72594    0.58238    0.72499   1.00
H1       0.78943    0.46885    0.80062   1.00
H1       0.79567    0.53148    0.79460   1.00
C5       0.70419    0.47980    0.69780   1.00
C5       0.69758    0.52020    0.70397   1.00
H1       0.78906    0.40045    0.79828   1.00
H1       0.79445    0.59990    0.79245   1.00
H1       0.70886    0.40320    0.70563   1.00
H1       0.70878    0.59632    0.70496   1.00
O3       0.68697    0.46039    0.66709   1.00
O3       0.66711    0.53901    0.68540   1.00
Si1      0.70954    0.45753    0.62522   1.00
Si1      0.62696    0.54721    0.70966   1.00
C6       0.67696    0.42462    0.60265   1.00
C6       0.70727    0.50402    0.60330   1.00
C6       0.75685    0.43747    0.62890   1.00
C6       0.62504    0.53307    0.75923   1.00
C6       0.62145    0.59802    0.70618   1.00
C6       0.58859    0.52523    0.68344   1.00
C6       0.66512    0.38806    0.62748   1.00
H2       0.65042    0.44209    0.60017   1.00
C6       0.68506    0.40853    0.56052   1.00
H2       0.68126    0.51642    0.61686   1.00
C6       0.74096    0.53366    0.61170   1.00
C6       0.70004    0.50664    0.55828   1.00
H2       0.75182    0.41169    0.64700   1.00
C6       0.77622    0.42228    0.59036   1.00
C6       0.79009    0.46151    0.64943   1.00
C6       0.63295    0.48929    0.76940   1.00
C6       0.64734    0.55775    0.79060   1.00
H2       0.59438    0.53788    0.76642   1.00
H2       0.64486    0.60949    0.72445   1.00
C6       0.62831    0.61622    0.66483   1.00
C6       0.58266    0.61607    0.72207   1.00
H2       0.58191    0.54625    0.66045   1.00
C6       0.59863    0.48664    0.66153   1.00
C6       0.54920    0.51756    0.70531   1.00
H2       0.65296    0.39654    0.65570   1.00
H2       0.69020    0.36910    0.63283   1.00
H2       0.64270    0.37083    0.61269   1.00
H2       0.65749    0.40392    0.54511   1.00
H2       0.70261    0.42822    0.54292   1.00
H2       0.69996    0.38036    0.56100   1.00
H2       0.73222    0.56328    0.60364   1.00
H2       0.74856    0.53468    0.64251   1.00
H2       0.76708    0.52648    0.59496   1.00
H2       0.67339    0.49138    0.54986   1.00
H2       0.69627    0.53692    0.54888   1.00
H2       0.72459    0.49450    0.54196   1.00
H2       0.77633    0.44486    0.56787   1.00
H2       0.80641    0.41292    0.59497   1.00
H2       0.76122    0.39668    0.57921   1.00
H2       0.80507    0.48098    0.62915   1.00
H2       0.77982    0.47932    0.67343   1.00
H2       0.81210    0.44172    0.66140   1.00
H2       0.66406    0.48312    0.77146   1.00
H2       0.62011    0.48191    0.79766   1.00
H2       0.62030    0.46952    0.74801   1.00
H2       0.63891    0.54875    0.82005   1.00
H2       0.67882    0.55426    0.78854   1.00
H2       0.64057    0.58878    0.78850   1.00
H2       0.63083    0.64798    0.66691   1.00
H2       0.65544    0.60565    0.65181   1.00
H2       0.60445    0.60965    0.64479   1.00
H2       0.57608    0.60584    0.75150   1.00
H2       0.58500    0.64788    0.72360   1.00
H2       0.55798    0.60915    0.70314   1.00
H2       0.60735    0.46344    0.68148   1.00
H2       0.57399    0.47619    0.64421   1.00
H2       0.62259    0.49166    0.64143   1.00
H2       0.52617    0.50956    0.68472   1.00
H2       0.55201    0.49378    0.72637   1.00
H2       0.53907    0.54343    0.72079   1.00
C4       0.75302    0.75039    0.47916   1.00
C4       0.75245    0.75085    0.52088   1.00
C3       0.77960    0.77254    0.45636   1.00
C3       0.77595    0.77611    0.54384   1.00
C3       0.72519    0.72704    0.45877   1.00
C3       0.72718    0.72466    0.54114   1.00
C2       0.75102    0.74938    0.39488   1.00
C2       0.74898    0.75062    0.60512   1.00
C3       0.77851    0.77223    0.41538   1.00
C3       0.77454    0.77576    0.58481   1.00
C3       0.72504    0.72657    0.41742   1.00
C3       0.72499    0.72594    0.58238   1.00
H1       0.80062    0.78943    0.46885   1.00
H1       0.79460    0.79567    0.53148   1.00
C5       0.69780    0.70419    0.47980   1.00
C5       0.70397    0.69758    0.52020   1.00
H1       0.79828    0.78906    0.40045   1.00
H1       0.79245    0.79445    0.59990   1.00
H1       0.70563    0.70886    0.40320   1.00
H1       0.70496    0.70878    0.59632   1.00
O3       0.66709    0.68697    0.46039   1.00
O3       0.68540    0.66711    0.53901   1.00
Si1      0.62522    0.70954    0.45753   1.00
Si1      0.70966    0.62696    0.54721   1.00
C6       0.60265    0.67696    0.42462   1.00
C6       0.60330    0.70727    0.50402   1.00
C6       0.62890    0.75685    0.43747   1.00
C6       0.75923    0.62504    0.53307   1.00
C6       0.70618    0.62145    0.59802   1.00
C6       0.68344    0.58859    0.52523   1.00
C6       0.62748    0.66512    0.38806   1.00
H2       0.60017    0.65042    0.44209   1.00
C6       0.56052    0.68506    0.40853   1.00
H2       0.61686    0.68126    0.51642   1.00
C6       0.61170    0.74096    0.53366   1.00
C6       0.55828    0.70004    0.50664   1.00
H2       0.64700    0.75182    0.41169   1.00
C6       0.59036    0.77622    0.42228   1.00
C6       0.64943    0.79009    0.46151   1.00
C6       0.76940    0.63295    0.48929   1.00
C6       0.79060    0.64734    0.55775   1.00
H2       0.76642    0.59438    0.53788   1.00
H2       0.72445    0.64486    0.60949   1.00
C6       0.66483    0.62831    0.61622   1.00
C6       0.72207    0.58266    0.61607   1.00
H2       0.66045    0.58191    0.54625   1.00
C6       0.66153    0.59863    0.48664   1.00
C6       0.70531    0.54920    0.51756   1.00
H2       0.65570    0.65296    0.39654   1.00
H2       0.63283    0.69020    0.36910   1.00
H2       0.61269    0.64270    0.37083   1.00
H2       0.54511    0.65749    0.40392   1.00
H2       0.54292    0.70261    0.42822   1.00
H2       0.56100    0.69996    0.38036   1.00
H2       0.60364    0.73222    0.56328   1.00
H2       0.64251    0.74856    0.53468   1.00
H2       0.59496    0.76708    0.52648   1.00
H2       0.54986    0.67339    0.49138   1.00
H2       0.54888    0.69627    0.53692   1.00
H2       0.54196    0.72459    0.49450   1.00
H2       0.56787    0.77633    0.44486   1.00
H2       0.59497    0.80641    0.41292   1.00
H2       0.57921    0.76122    0.39668   1.00
H2       0.62915    0.80507    0.48098   1.00
H2       0.67343    0.77982    0.47932   1.00
H2       0.66140    0.81210    0.44172   1.00
H2       0.77146    0.66406    0.48312   1.00
H2       0.79766    0.62011    0.48191   1.00
H2       0.74801    0.62030    0.46952   1.00
H2       0.82005    0.63891    0.54875   1.00
H2       0.78854    0.67882    0.55426   1.00
H2       0.78850    0.64057    0.58878   1.00
H2       0.66691    0.63083    0.64798   1.00
H2       0.65181    0.65544    0.60565   1.00
H2       0.64479    0.60445    0.60965   1.00
H2       0.75150    0.57608    0.60584   1.00
H2       0.72360    0.58500    0.64788   1.00
H2       0.70314    0.55798    0.60915   1.00
H2       0.68148    0.60735    0.46344   1.00
H2       0.64421    0.57399    0.47619   1.00
H2       0.64143    0.62259    0.49166   1.00
H2       0.68472    0.52617    0.50956   1.00
H2       0.72637    0.55201    0.49378   1.00
H2       0.72079    0.53907    0.54343   1.00
C4       0.25302    0.24961    1.02084   1.00
C4       0.25245    0.24915    0.97912   1.00
C3       0.27960    0.22746    1.04364   1.00
C3       0.27595    0.22389    0.95616   1.00
C3       0.22519    0.27296    1.04123   1.00
C3       0.22718    0.27534    0.95886   1.00
C2       0.25102    0.25062    1.10512   1.00
C2       0.24898    0.24938    0.89488   1.00
C3       0.27851    0.22777    1.08462   1.00
C3       0.27454    0.22424    0.91519   1.00
C3       0.22504    0.27343    1.08258   1.00
C3       0.22499    0.27406    0.91762   1.00
H1       0.30062    0.21057    1.03115   1.00
H1       0.29460    0.20433    0.96852   1.00
C5       0.19780    0.29581    1.02020   1.00
C5       0.20397    0.30242    0.97980   1.00
H1       0.29828    0.21094    1.09955   1.00
H1       0.29245    0.20555    0.90010   1.00
H1       0.20563    0.29114    1.09680   1.00
H1       0.20496    0.29122    0.90368   1.00
O3       0.16709    0.31303    1.03961   1.00
O3       0.18540    0.33289    0.96099   1.00
Si1      0.12522    0.29046    1.04247   1.00
Si1      0.20966    0.37304    0.95279   1.00
C6       0.10265    0.32304    1.07538   1.00
C6       0.10330    0.29273    0.99598   1.00
C6       0.12890    0.24315    1.06253   1.00
C6       0.25923    0.37496    0.96693   1.00
C6       0.20618    0.37855    0.90198   1.00
C6       0.18344    0.41141    0.97477   1.00
C6       0.12748    0.33488    1.11194   1.00
H2       0.10017    0.34958    1.05791   1.00
C6       0.06052    0.31494    1.09147   1.00
H2       0.11686    0.31874    0.98358   1.00
C6       0.11170    0.25904    0.96634   1.00
C6       0.05828    0.29996    0.99336   1.00
H2       0.14700    0.24818    1.08831   1.00
C6       0.09036    0.22378    1.07772   1.00
C6       0.14943    0.20991    1.03849   1.00
C6       0.26940    0.36705    1.01071   1.00
C6       0.29060    0.35266    0.94225   1.00
H2       0.26642    0.40562    0.96212   1.00
H2       0.22445    0.35514    0.89051   1.00
C6       0.16483    0.37169    0.88378   1.00
C6       0.22207    0.41734    0.88393   1.00
H2       0.16045    0.41809    0.95375   1.00
C6       0.16153    0.40137    1.01336   1.00
C6       0.20531    0.45080    0.98244   1.00
H2       0.15570    0.34704    1.10346   1.00
H2       0.13283    0.30980    1.13090   1.00
H2       0.11269    0.35730    1.12917   1.00
H2       0.04511    0.34251    1.09608   1.00
H2       0.04292    0.29739    1.07178   1.00
H2       0.06100    0.30004    1.11964   1.00
H2       0.10364    0.26778    0.93672   1.00
H2       0.14251    0.25144    0.96532   1.00
H2       0.09496    0.23292    0.97352   1.00
H2       0.04986    0.32661    1.00862   1.00
H2       0.04888    0.30373    0.96308   1.00
H2       0.04196    0.27541    1.00550   1.00
H2       0.06787    0.22367    1.05514   1.00
H2       0.09497    0.19359    1.08708   1.00
H2       0.07921    0.23878    1.10332   1.00
H2       0.12915    0.19493    1.01902   1.00
H2       0.17343    0.22018    1.02068   1.00
H2       0.16140    0.18790    1.05828   1.00
H2       0.27146    0.33594    1.01688   1.00
H2       0.29766    0.37989    1.01809   1.00
H2       0.24801    0.37970    1.03048   1.00
H2       0.32005    0.36109    0.95125   1.00
H2       0.28854    0.32118    0.94574   1.00
H2       0.28850    0.35943    0.91122   1.00
H2       0.16691    0.36917    0.85202   1.00
H2       0.15181    0.34456    0.89435   1.00
H2       0.14479    0.39555    0.89035   1.00
H2       0.25150    0.42392    0.89416   1.00
H2       0.22360    0.41500    0.85212   1.00
H2       0.20314    0.44202    0.89085   1.00
H2       0.18148    0.39265    1.03656   1.00
H2       0.14421    0.42601    1.02381   1.00
H2       0.14143    0.37741    1.00834   1.00
H2       0.18472    0.47383    0.99044   1.00
H2       0.22637    0.44799    1.00622   1.00
H2       0.22079    0.46093    0.95657   1.00
C4       0.24961    0.52084    0.75302   1.00
C4       0.24915    0.47912    0.75245   1.00
C3       0.22746    0.54364    0.77960   1.00
C3       0.22389    0.45616    0.77595   1.00
C3       0.27296    0.54123    0.72519   1.00
C3       0.27534    0.45886    0.72718   1.00
C2       0.25062    0.60512    0.75102   1.00
C2       0.24938    0.39488    0.74898   1.00
C3       0.22777    0.58462    0.77851   1.00
C3       0.22424    0.41519    0.77454   1.00
C3       0.27343    0.58258    0.72504   1.00
C3       0.27406    0.41762    0.72499   1.00
H1       0.21057    0.53115    0.80062   1.00
H1       0.20433    0.46852    0.79460   1.00
C5       0.29581    0.52020    0.69780   1.00
C5       0.30242    0.47980    0.70397   1.00
H1       0.21094    0.59955    0.79828   1.00
H1       0.20555    0.40010    0.79245   1.00
H1       0.29114    0.59680    0.70563   1.00
H1       0.29122    0.40368    0.70496   1.00
O3       0.31303    0.53961    0.66709   1.00
O3       0.33289    0.46099    0.68540   1.00
Si1      0.29046    0.54247    0.62522   1.00
Si1      0.37304    0.45279    0.70966   1.00
C6       0.32304    0.57538    0.60265   1.00
C6       0.29273    0.49598    0.60330   1.00
C6       0.24315    0.56253    0.62890   1.00
C6       0.37496    0.46693    0.75923   1.00
C6       0.37855    0.40198    0.70618   1.00
C6       0.41141    0.47477    0.68344   1.00
C6       0.33488    0.61194    0.62748   1.00
H2       0.34958    0.55791    0.60017   1.00
C6       0.31494    0.59147    0.56052   1.00
H2       0.31874    0.48358    0.61686   1.00
C6       0.25904    0.46634    0.61170   1.00
C6       0.29996    0.49336    0.55828   1.00
H2       0.24818    0.58831    0.64700   1.00
C6       0.22378    0.57772    0.59036   1.00
C6       0.20991    0.53849    0.64943   1.00
C6       0.36705    0.51071    0.76940   1.00
C6       0.35266    0.44225    0.79060   1.00
H2       0.40562    0.46212    0.76642   1.00
H2       0.35514    0.39051    0.72445   1.00
C6       0.37169    0.38378    0.66483   1.00
C6       0.41734    0.38393    0.72207   1.00
H2       0.41809    0.45375    0.66045   1.00
C6       0.40137    0.51336    0.66153   1.00
C6       0.45080    0.48244    0.70531   1.00
H2       0.34704    0.60346    0.65570   1.00
H2       0.30980    0.63090    0.63283   1.00
H2       0.35730    0.62917    0.61269   1.00
H2       0.34251    0.59608    0.54511   1.00
H2       0.29739    0.57178    0.54292   1.00
H2       0.30004    0.61964    0.56100   1.00
H2       0.26778    0.43672    0.60364   1.00
H2       0.25144    0.46532    0.64251   1.00
H2       0.23292    0.47352    0.59496   1.00
H2       0.32661    0.50862    0.54986   1.00
H2       0.30373    0.46308    0.54888   1.00
H2       0.27541    0.50550    0.54196   1.00
H2       0.22367    0.55514    0.56787   1.00
H2       0.19359    0.58708    0.59497   1.00
H2       0.23878    0.60332    0.57921   1.00
H2       0.19493    0.51902    0.62915   1.00
H2       0.22018    0.52068    0.67343   1.00
H2       0.18790    0.55828    0.66140   1.00
H2       0.33594    0.51688    0.77146   1.00
H2       0.37989    0.51809    0.79766   1.00
H2       0.37970    0.53048    0.74801   1.00
H2       0.36109    0.45125    0.82005   1.00
H2       0.32118    0.44574    0.78854   1.00
H2       0.35943    0.41122    0.78850   1.00
H2       0.36917    0.35202    0.66691   1.00
H2       0.34456    0.39435    0.65181   1.00
H2       0.39555    0.39035    0.64479   1.00
H2       0.42392    0.39416    0.75150   1.00
H2       0.41500    0.35212    0.72360   1.00
H2       0.44202    0.39085    0.70314   1.00
H2       0.39265    0.53656    0.68148   1.00
H2       0.42601    0.52381    0.64421   1.00
H2       0.37741    0.50834    0.64143   1.00
H2       0.47383    0.49044    0.68472   1.00
H2       0.44799    0.50622    0.72637   1.00
H2       0.46093    0.45657    0.72079   1.00
C4       -0.02084   0.25302    0.75039   1.00
C4       0.02088    0.25245    0.75085   1.00
C3       -0.04364   0.27960    0.77254   1.00
C3       0.04384    0.27595    0.77611   1.00
C3       -0.04123   0.22519    0.72704   1.00
C3       0.04114    0.22718    0.72466   1.00
C2       -0.10512   0.25102    0.74938   1.00
C2       0.10512    0.24898    0.75062   1.00
C3       -0.08462   0.27851    0.77223   1.00
C3       0.08481    0.27454    0.77576   1.00
C3       -0.08258   0.22504    0.72657   1.00
C3       0.08238    0.22499    0.72594   1.00
H1       -0.03115   0.30062    0.78943   1.00
H1       0.03148    0.29460    0.79567   1.00
C5       -0.02020   0.19780    0.70419   1.00
C5       0.02020    0.20397    0.69758   1.00
H1       -0.09955   0.29828    0.78906   1.00
H1       0.09990    0.29245    0.79445   1.00
H1       -0.09680   0.20563    0.70886   1.00
H1       0.09632    0.20496    0.70878   1.00
O3       -0.03961   0.16709    0.68697   1.00
O3       0.03901    0.18540    0.66711   1.00
Si1      -0.04247   0.12522    0.70954   1.00
Si1      0.04721    0.20966    0.62696   1.00
C6       -0.07538   0.10265    0.67696   1.00
C6       0.00402    0.10330    0.70727   1.00
C6       -0.06253   0.12890    0.75685   1.00
C6       0.03307    0.25923    0.62504   1.00
C6       0.09802    0.20618    0.62145   1.00
C6       0.02523    0.18344    0.58859   1.00
C6       -0.11194   0.12748    0.66512   1.00
H2       -0.05791   0.10017    0.65042   1.00
C6       -0.09147   0.06052    0.68506   1.00
H2       0.01642    0.11686    0.68126   1.00
C6       0.03366    0.11170    0.74096   1.00
C6       0.00664    0.05828    0.70004   1.00
H2       -0.08831   0.14700    0.75182   1.00
C6       -0.07772   0.09036    0.77622   1.00
C6       -0.03849   0.14943    0.79009   1.00
C6       -0.01071   0.26940    0.63295   1.00
C6       0.05775    0.29060    0.64734   1.00
H2       0.03788    0.26642    0.59438   1.00
H2       0.10949    0.22445    0.64486   1.00
C6       0.11622    0.16483    0.62831   1.00
C6       0.11607    0.22207    0.58266   1.00
H2       0.04625    0.16045    0.58191   1.00
C6       -0.01336   0.16153    0.59863   1.00
C6       0.01756    0.20531    0.54920   1.00
H2       -0.10346   0.15570    0.65296   1.00
H2       -0.13090   0.13283    0.69020   1.00
H2       -0.12917   0.11269    0.64270   1.00
H2       -0.09608   0.04511    0.65749   1.00
H2       -0.07178   0.04292    0.70261   1.00
H2       -0.11964   0.06100    0.69996   1.00
H2       0.06328    0.10364    0.73222   1.00
H2       0.03468    0.14251    0.74856   1.00
H2       0.02648    0.09496    0.76708   1.00
H2       -0.00862   0.04986    0.67339   1.00
H2       0.03692    0.04888    0.69627   1.00
H2       -0.00550   0.04196    0.72459   1.00
H2       -0.05514   0.06787    0.77633   1.00
H2       -0.08708   0.09497    0.80641   1.00
H2       -0.10332   0.07921    0.76122   1.00
H2       -0.01902   0.12915    0.80507   1.00
H2       -0.02068   0.17343    0.77982   1.00
H2       -0.05828   0.16140    0.81210   1.00
H2       -0.01688   0.27146    0.66406   1.00
H2       -0.01809   0.29766    0.62011   1.00
H2       -0.03048   0.24801    0.62030   1.00
H2       0.04875    0.32005    0.63891   1.00
H2       0.05426    0.28854    0.67882   1.00
H2       0.08878    0.28850    0.64057   1.00
H2       0.14798    0.16691    0.63083   1.00
H2       0.10565    0.15181    0.65544   1.00
H2       0.10965    0.14479    0.60445   1.00
H2       0.10584    0.25150    0.57608   1.00
H2       0.14788    0.22360    0.58500   1.00
H2       0.10915    0.20314    0.55798   1.00
H2       -0.03656   0.18148    0.60735   1.00
H2       -0.02381   0.14421    0.57399   1.00
H2       -0.00834   0.14143    0.62259   1.00
H2       0.00956    0.18472    0.52617   1.00
H2       -0.00622   0.22637    0.55201   1.00
H2       0.04343    0.22079    0.53907   1.00
C4       0.52084    0.25302    0.74961   1.00
C4       0.47912    0.25245    0.74915   1.00
C3       0.54364    0.27960    0.72746   1.00
C3       0.45616    0.27595    0.72389   1.00
C3       0.54123    0.22519    0.77296   1.00
C3       0.45886    0.22718    0.77534   1.00
C2       0.60512    0.25102    0.75062   1.00
C2       0.39488    0.24898    0.74938   1.00
C3       0.58462    0.27851    0.72777   1.00
C3       0.41519    0.27454    0.72424   1.00
C3       0.58258    0.22504    0.77343   1.00
C3       0.41762    0.22499    0.77406   1.00
H1       0.53115    0.30062    0.71057   1.00
H1       0.46852    0.29460    0.70433   1.00
C5       0.52020    0.19780    0.79581   1.00
C5       0.47980    0.20397    0.80242   1.00
H1       0.59955    0.29828    0.71094   1.00
H1       0.40010    0.29245    0.70555   1.00
H1       0.59680    0.20563    0.79114   1.00
H1       0.40368    0.20496    0.79122   1.00
O3       0.53961    0.16709    0.81303   1.00
O3       0.46099    0.18540    0.83289   1.00
Si1      0.54247    0.12522    0.79046   1.00
Si1      0.45279    0.20966    0.87304   1.00
C6       0.57538    0.10265    0.82304   1.00
C6       0.49598    0.10330    0.79273   1.00
C6       0.56253    0.12890    0.74315   1.00
C6       0.46693    0.25923    0.87496   1.00
C6       0.40198    0.20618    0.87855   1.00
C6       0.47477    0.18344    0.91141   1.00
C6       0.61194    0.12748    0.83488   1.00
H2       0.55791    0.10017    0.84958   1.00
C6       0.59147    0.06052    0.81494   1.00
H2       0.48358    0.11686    0.81874   1.00
C6       0.46634    0.11170    0.75904   1.00
C6       0.49336    0.05828    0.79996   1.00
H2       0.58831    0.14700    0.74818   1.00
C6       0.57772    0.09036    0.72378   1.00
C6       0.53849    0.14943    0.70991   1.00
C6       0.51071    0.26940    0.86705   1.00
C6       0.44225    0.29060    0.85266   1.00
H2       0.46212    0.26642    0.90562   1.00
H2       0.39051    0.22445    0.85514   1.00
C6       0.38378    0.16483    0.87169   1.00
C6       0.38393    0.22207    0.91734   1.00
H2       0.45375    0.16045    0.91809   1.00
C6       0.51336    0.16153    0.90137   1.00
C6       0.48244    0.20531    0.95080   1.00
H2       0.60346    0.15570    0.84704   1.00
H2       0.63090    0.13283    0.80980   1.00
H2       0.62917    0.11269    0.85730   1.00
H2       0.59608    0.04511    0.84251   1.00
H2       0.57178    0.04292    0.79739   1.00
H2       0.61964    0.06100    0.80004   1.00
H2       0.43672    0.10364    0.76778   1.00
H2       0.46532    0.14251    0.75144   1.00
H2       0.47352    0.09496    0.73292   1.00
H2       0.50862    0.04986    0.82661   1.00
H2       0.46308    0.04888    0.80373   1.00
H2       0.50550    0.04196    0.77541   1.00
H2       0.55514    0.06787    0.72367   1.00
H2       0.58708    0.09497    0.69359   1.00
H2       0.60332    0.07921    0.73878   1.00
H2       0.51902    0.12915    0.69493   1.00
H2       0.52068    0.17343    0.72018   1.00
H2       0.55828    0.16140    0.68790   1.00
H2       0.51688    0.27146    0.83594   1.00
H2       0.51809    0.29766    0.87989   1.00
H2       0.53048    0.24801    0.87970   1.00
H2       0.45125    0.32005    0.86109   1.00
H2       0.44574    0.28854    0.82118   1.00
H2       0.41122    0.28850    0.85943   1.00
H2       0.35202    0.16691    0.86917   1.00
H2       0.39435    0.15181    0.84456   1.00
H2       0.39035    0.14479    0.89555   1.00
H2       0.39416    0.25150    0.92392   1.00
H2       0.35212    0.22360    0.91500   1.00
H2       0.39085    0.20314    0.94202   1.00
H2       0.53656    0.18148    0.89265   1.00
H2       0.52381    0.14421    0.92601   1.00
H2       0.50834    0.14143    0.87741   1.00
H2       0.49044    0.18472    0.97383   1.00
H2       0.50622    0.22637    0.94799   1.00
H2       0.45657    0.22079    0.96093   1.00
C4       0.25039    -0.02084   0.75302   1.00
C4       0.25085    0.02088    0.75245   1.00
C3       0.27254    -0.04364   0.77960   1.00
C3       0.27611    0.04384    0.77595   1.00
C3       0.22704    -0.04123   0.72519   1.00
C3       0.22466    0.04114    0.72718   1.00
C2       0.24938    -0.10512   0.75102   1.00
C2       0.25062    0.10512    0.74898   1.00
C3       0.27223    -0.08462   0.77851   1.00
C3       0.27576    0.08481    0.77454   1.00
C3       0.22657    -0.08258   0.72504   1.00
C3       0.22594    0.08238    0.72499   1.00
H1       0.28943    -0.03115   0.80062   1.00
H1       0.29567    0.03148    0.79460   1.00
C5       0.20419    -0.02020   0.69780   1.00
C5       0.19758    0.02020    0.70397   1.00
H1       0.28906    -0.09955   0.79828   1.00
H1       0.29445    0.09990    0.79245   1.00
H1       0.20886    -0.09680   0.70563   1.00
H1       0.20878    0.09632    0.70496   1.00
O3       0.18697    -0.03961   0.66709   1.00
O3       0.16711    0.03901    0.68540   1.00
Si1      0.20954    -0.04247   0.62522   1.00
Si1      0.12696    0.04721    0.70966   1.00
C6       0.17696    -0.07538   0.60265   1.00
C6       0.20727    0.00402    0.60330   1.00
C6       0.25685    -0.06253   0.62890   1.00
C6       0.12504    0.03307    0.75923   1.00
C6       0.12145    0.09802    0.70618   1.00
C6       0.08859    0.02523    0.68344   1.00
C6       0.16512    -0.11194   0.62748   1.00
H2       0.15042    -0.05791   0.60017   1.00
C6       0.18506    -0.09147   0.56052   1.00
H2       0.18126    0.01642    0.61686   1.00
C6       0.24096    0.03366    0.61170   1.00
C6       0.20004    0.00664    0.55828   1.00
H2       0.25182    -0.08831   0.64700   1.00
C6       0.27622    -0.07772   0.59036   1.00
C6       0.29009    -0.03849   0.64943   1.00
C6       0.13295    -0.01071   0.76940   1.00
C6       0.14734    0.05775    0.79060   1.00
H2       0.09438    0.03788    0.76642   1.00
H2       0.14486    0.10949    0.72445   1.00
C6       0.12831    0.11622    0.66483   1.00
C6       0.08266    0.11607    0.72207   1.00
H2       0.08191    0.04625    0.66045   1.00
C6       0.09863    -0.01336   0.66153   1.00
C6       0.04920    0.01756    0.70531   1.00
H2       0.15296    -0.10346   0.65570   1.00
H2       0.19020    -0.13090   0.63283   1.00
H2       0.14270    -0.12917   0.61269   1.00
H2       0.15749    -0.09608   0.54511   1.00
H2       0.20261    -0.07178   0.54292   1.00
H2       0.19996    -0.11964   0.56100   1.00
H2       0.23222    0.06328    0.60364   1.00
H2       0.24856    0.03468    0.64251   1.00
H2       0.26708    0.02648    0.59496   1.00
H2       0.17339    -0.00862   0.54986   1.00
H2       0.19627    0.03692    0.54888   1.00
H2       0.22459    -0.00550   0.54196   1.00
H2       0.27633    -0.05514   0.56787   1.00
H2       0.30641    -0.08708   0.59497   1.00
H2       0.26122    -0.10332   0.57921   1.00
H2       0.30507    -0.01902   0.62915   1.00
H2       0.27982    -0.02068   0.67343   1.00
H2       0.31210    -0.05828   0.66140   1.00
H2       0.16406    -0.01688   0.77146   1.00
H2       0.12011    -0.01809   0.79766   1.00
H2       0.12030    -0.03048   0.74801   1.00
H2       0.13891    0.04875    0.82005   1.00
H2       0.17882    0.05426    0.78854   1.00
H2       0.14057    0.08878    0.78850   1.00
H2       0.13083    0.14798    0.66691   1.00
H2       0.15544    0.10565    0.65181   1.00
H2       0.10445    0.10965    0.64479   1.00
H2       0.07608    0.10584    0.75150   1.00
H2       0.08500    0.14788    0.72360   1.00
H2       0.05798    0.10915    0.70314   1.00
H2       0.10735    -0.03656   0.68148   1.00
H2       0.07399    -0.02381   0.64421   1.00
H2       0.12259    -0.00834   0.64143   1.00
H2       0.02617    0.00956    0.68472   1.00
H2       0.05201    -0.00622   0.72637   1.00
H2       0.03907    0.04343    0.72079   1.00
C4       0.25302    0.25039    0.47916   1.00
C4       0.25245    0.25085    0.52088   1.00
C3       0.27960    0.27254    0.45636   1.00
C3       0.27595    0.27611    0.54384   1.00
C3       0.22519    0.22704    0.45877   1.00
C3       0.22718    0.22466    0.54114   1.00
C2       0.25102    0.24938    0.39488   1.00
C2       0.24898    0.25062    0.60512   1.00
C3       0.27851    0.27223    0.41538   1.00
C3       0.27454    0.27576    0.58481   1.00
C3       0.22504    0.22657    0.41742   1.00
C3       0.22499    0.22594    0.58238   1.00
H1       0.30062    0.28943    0.46885   1.00
H1       0.29460    0.29567    0.53148   1.00
C5       0.19780    0.20419    0.47980   1.00
C5       0.20397    0.19758    0.52020   1.00
H1       0.29828    0.28906    0.40045   1.00
H1       0.29245    0.29445    0.59990   1.00
H1       0.20563    0.20886    0.40320   1.00
H1       0.20496    0.20878    0.59632   1.00
O3       0.16709    0.18697    0.46039   1.00
O3       0.18540    0.16711    0.53901   1.00
Si1      0.12522    0.20954    0.45753   1.00
Si1      0.20966    0.12696    0.54721   1.00
C6       0.10265    0.17696    0.42462   1.00
C6       0.10330    0.20727    0.50402   1.00
C6       0.12890    0.25685    0.43747   1.00
C6       0.25923    0.12504    0.53307   1.00
C6       0.20618    0.12145    0.59802   1.00
C6       0.18344    0.08859    0.52523   1.00
C6       0.12748    0.16512    0.38806   1.00
H2       0.10017    0.15042    0.44209   1.00
C6       0.06052    0.18506    0.40853   1.00
H2       0.11686    0.18126    0.51642   1.00
C6       0.11170    0.24096    0.53366   1.00
C6       0.05828    0.20004    0.50664   1.00
H2       0.14700    0.25182    0.41169   1.00
C6       0.09036    0.27622    0.42228   1.00
C6       0.14943    0.29009    0.46151   1.00
C6       0.26940    0.13295    0.48929   1.00
C6       0.29060    0.14734    0.55775   1.00
H2       0.26642    0.09438    0.53788   1.00
H2       0.22445    0.14486    0.60949   1.00
C6       0.16483    0.12831    0.61622   1.00
C6       0.22207    0.08266    0.61607   1.00
H2       0.16045    0.08191    0.54625   1.00
C6       0.16153    0.09863    0.48664   1.00
C6       0.20531    0.04920    0.51756   1.00
H2       0.15570    0.15296    0.39654   1.00
H2       0.13283    0.19020    0.36910   1.00
H2       0.11269    0.14270    0.37083   1.00
H2       0.04511    0.15749    0.40392   1.00
H2       0.04292    0.20261    0.42822   1.00
H2       0.06100    0.19996    0.38036   1.00
H2       0.10364    0.23222    0.56328   1.00
H2       0.14251    0.24856    0.53468   1.00
H2       0.09496    0.26708    0.52648   1.00
H2       0.04986    0.17339    0.49138   1.00
H2       0.04888    0.19627    0.53692   1.00
H2       0.04196    0.22459    0.49450   1.00
H2       0.06787    0.27633    0.44486   1.00
H2       0.09497    0.30641    0.41292   1.00
H2       0.07921    0.26122    0.39668   1.00
H2       0.12915    0.30507    0.48098   1.00
H2       0.17343    0.27982    0.47932   1.00
H2       0.16140    0.31210    0.44172   1.00
H2       0.27146    0.16406    0.48312   1.00
H2       0.29766    0.12011    0.48191   1.00
H2       0.24801    0.12030    0.46952   1.00
H2       0.32005    0.13891    0.54875   1.00
H2       0.28854    0.17882    0.55426   1.00
H2       0.28850    0.14057    0.58878   1.00
H2       0.16691    0.13083    0.64798   1.00
H2       0.15181    0.15544    0.60565   1.00
H2       0.14479    0.10445    0.60965   1.00
H2       0.25150    0.07608    0.60584   1.00
H2       0.22360    0.08500    0.64788   1.00
H2       0.20314    0.05798    0.60915   1.00
H2       0.18148    0.10735    0.46344   1.00
H2       0.14421    0.07399    0.47619   1.00
H2       0.14143    0.12259    0.49166   1.00
H2       0.18472    0.02617    0.50956   1.00
H2       0.22637    0.05201    0.49378   1.00
H2       0.22079    0.03907    0.54343   1.00
C4       0.25302    0.74961    0.52084   1.00
C4       0.25245    0.74915    0.47912   1.00
C3       0.27960    0.72746    0.54364   1.00
C3       0.27595    0.72389    0.45616   1.00
C3       0.22519    0.77296    0.54123   1.00
C3       0.22718    0.77534    0.45886   1.00
C2       0.25102    0.75062    0.60512   1.00
C2       0.24898    0.74938    0.39488   1.00
C3       0.27851    0.72777    0.58462   1.00
C3       0.27454    0.72424    0.41519   1.00
C3       0.22504    0.77343    0.58258   1.00
C3       0.22499    0.77406    0.41762   1.00
H1       0.30062    0.71057    0.53115   1.00
H1       0.29460    0.70433    0.46852   1.00
C5       0.19780    0.79581    0.52020   1.00
C5       0.20397    0.80242    0.47980   1.00
H1       0.29828    0.71094    0.59955   1.00
H1       0.29245    0.70555    0.40010   1.00
H1       0.20563    0.79114    0.59680   1.00
H1       0.20496    0.79122    0.40368   1.00
O3       0.16709    0.81303    0.53961   1.00
O3       0.18540    0.83289    0.46099   1.00
Si1      0.12522    0.79046    0.54247   1.00
Si1      0.20966    0.87304    0.45279   1.00
C6       0.10265    0.82304    0.57538   1.00
C6       0.10330    0.79273    0.49598   1.00
C6       0.12890    0.74315    0.56253   1.00
C6       0.25923    0.87496    0.46693   1.00
C6       0.20618    0.87855    0.40198   1.00
C6       0.18344    0.91141    0.47477   1.00
C6       0.12748    0.83488    0.61194   1.00
H2       0.10017    0.84958    0.55791   1.00
C6       0.06052    0.81494    0.59147   1.00
H2       0.11686    0.81874    0.48358   1.00
C6       0.11170    0.75904    0.46634   1.00
C6       0.05828    0.79996    0.49336   1.00
H2       0.14700    0.74818    0.58831   1.00
C6       0.09036    0.72378    0.57772   1.00
C6       0.14943    0.70991    0.53849   1.00
C6       0.26940    0.86705    0.51071   1.00
C6       0.29060    0.85266    0.44225   1.00
H2       0.26642    0.90562    0.46212   1.00
H2       0.22445    0.85514    0.39051   1.00
C6       0.16483    0.87169    0.38378   1.00
C6       0.22207    0.91734    0.38393   1.00
H2       0.16045    0.91809    0.45375   1.00
C6       0.16153    0.90137    0.51336   1.00
C6       0.20531    0.95080    0.48244   1.00
H2       0.15570    0.84704    0.60346   1.00
H2       0.13283    0.80980    0.63090   1.00
H2       0.11269    0.85730    0.62917   1.00
H2       0.04511    0.84251    0.59608   1.00
H2       0.04292    0.79739    0.57178   1.00
H2       0.06100    0.80004    0.61964   1.00
H2       0.10364    0.76778    0.43672   1.00
H2       0.14251    0.75144    0.46532   1.00
H2       0.09496    0.73292    0.47352   1.00
H2       0.04986    0.82661    0.50862   1.00
H2       0.04888    0.80373    0.46308   1.00
H2       0.04196    0.77541    0.50550   1.00
H2       0.06787    0.72367    0.55514   1.00
H2       0.09497    0.69359    0.58708   1.00
H2       0.07921    0.73878    0.60332   1.00
H2       0.12915    0.69493    0.51902   1.00
H2       0.17343    0.72018    0.52068   1.00
H2       0.16140    0.68790    0.55828   1.00
H2       0.27146    0.83594    0.51688   1.00
H2       0.29766    0.87989    0.51809   1.00
H2       0.24801    0.87970    0.53048   1.00
H2       0.32005    0.86109    0.45125   1.00
H2       0.28854    0.82118    0.44574   1.00
H2       0.28850    0.85943    0.41122   1.00
H2       0.16691    0.86917    0.35202   1.00
H2       0.15181    0.84456    0.39435   1.00
H2       0.14479    0.89555    0.39035   1.00
H2       0.25150    0.92392    0.39416   1.00
H2       0.22360    0.91500    0.35212   1.00
H2       0.20314    0.94202    0.39085   1.00
H2       0.18148    0.89265    0.53656   1.00
H2       0.14421    0.92601    0.52381   1.00
H2       0.14143    0.87741    0.50834   1.00
H2       0.18472    0.97383    0.49044   1.00
H2       0.22637    0.94799    0.50622   1.00
H2       0.22079    0.96093    0.45657   1.00
C4       0.24961    1.02084    0.25302   1.00
C4       0.24915    0.97912    0.25245   1.00
C3       0.22746    1.04364    0.27960   1.00
C3       0.22389    0.95616    0.27595   1.00
C3       0.27296    1.04123    0.22519   1.00
C3       0.27534    0.95886    0.22718   1.00
C2       0.25062    1.10512    0.25102   1.00
C2       0.24938    0.89488    0.24898   1.00
C3       0.22777    1.08462    0.27851   1.00
C3       0.22424    0.91519    0.27454   1.00
C3       0.27343    1.08258    0.22504   1.00
C3       0.27406    0.91762    0.22499   1.00
H1       0.21057    1.03115    0.30062   1.00
H1       0.20433    0.96852    0.29460   1.00
C5       0.29581    1.02020    0.19780   1.00
C5       0.30242    0.97980    0.20397   1.00
H1       0.21094    1.09955    0.29828   1.00
H1       0.20555    0.90010    0.29245   1.00
H1       0.29114    1.09680    0.20563   1.00
H1       0.29122    0.90368    0.20496   1.00
O3       0.31303    1.03961    0.16709   1.00
O3       0.33289    0.96099    0.18540   1.00
Si1      0.29046    1.04247    0.12522   1.00
Si1      0.37304    0.95279    0.20966   1.00
C6       0.32304    1.07538    0.10265   1.00
C6       0.29273    0.99598    0.10330   1.00
C6       0.24315    1.06253    0.12890   1.00
C6       0.37496    0.96693    0.25923   1.00
C6       0.37855    0.90198    0.20618   1.00
C6       0.41141    0.97477    0.18344   1.00
C6       0.33488    1.11194    0.12748   1.00
H2       0.34958    1.05791    0.10017   1.00
C6       0.31494    1.09147    0.06052   1.00
H2       0.31874    0.98358    0.11686   1.00
C6       0.25904    0.96634    0.11170   1.00
C6       0.29996    0.99336    0.05828   1.00
H2       0.24818    1.08831    0.14700   1.00
C6       0.22378    1.07772    0.09036   1.00
C6       0.20991    1.03849    0.14943   1.00
C6       0.36705    1.01071    0.26940   1.00
C6       0.35266    0.94225    0.29060   1.00
H2       0.40562    0.96212    0.26642   1.00
H2       0.35514    0.89051    0.22445   1.00
C6       0.37169    0.88378    0.16483   1.00
C6       0.41734    0.88393    0.22207   1.00
H2       0.41809    0.95375    0.16045   1.00
C6       0.40137    1.01336    0.16153   1.00
C6       0.45080    0.98244    0.20531   1.00
H2       0.34704    1.10346    0.15570   1.00
H2       0.30980    1.13090    0.13283   1.00
H2       0.35730    1.12917    0.11269   1.00
H2       0.34251    1.09608    0.04511   1.00
H2       0.29739    1.07178    0.04292   1.00
H2       0.30004    1.11964    0.06100   1.00
H2       0.26778    0.93672    0.10364   1.00
H2       0.25144    0.96532    0.14251   1.00
H2       0.23292    0.97352    0.09496   1.00
H2       0.32661    1.00862    0.04986   1.00
H2       0.30373    0.96308    0.04888   1.00
H2       0.27541    1.00550    0.04196   1.00
H2       0.22367    1.05514    0.06787   1.00
H2       0.19359    1.08708    0.09497   1.00
H2       0.23878    1.10332    0.07921   1.00
H2       0.19493    1.01902    0.12915   1.00
H2       0.22018    1.02068    0.17343   1.00
H2       0.18790    1.05828    0.16140   1.00
H2       0.33594    1.01688    0.27146   1.00
H2       0.37989    1.01809    0.29766   1.00
H2       0.37970    1.03048    0.24801   1.00
H2       0.36109    0.95125    0.32005   1.00
H2       0.32118    0.94574    0.28854   1.00
H2       0.35943    0.91122    0.28850   1.00
H2       0.36917    0.85202    0.16691   1.00
H2       0.34456    0.89435    0.15181   1.00
H2       0.39555    0.89035    0.14479   1.00
H2       0.42392    0.89416    0.25150   1.00
H2       0.41500    0.85212    0.22360   1.00
H2       0.44202    0.89085    0.20314   1.00
H2       0.39265    1.03656    0.18148   1.00
H2       0.42601    1.02381    0.14421   1.00
H2       0.37741    1.00834    0.14143   1.00
H2       0.47383    0.99044    0.18472   1.00
H2       0.44799    1.00622    0.22637   1.00
H2       0.46093    0.95657    0.22079   1.00
C4       -0.02084   0.75302    0.25039   1.00
C4       0.02088    0.75245    0.25085   1.00
C3       -0.04364   0.77960    0.27254   1.00
C3       0.04384    0.77595    0.27611   1.00
C3       -0.04123   0.72519    0.22704   1.00
C3       0.04114    0.72718    0.22466   1.00
C2       -0.10512   0.75102    0.24938   1.00
C2       0.10512    0.74898    0.25062   1.00
C3       -0.08462   0.77851    0.27223   1.00
C3       0.08481    0.77454    0.27576   1.00
C3       -0.08258   0.72504    0.22657   1.00
C3       0.08238    0.72499    0.22594   1.00
H1       -0.03115   0.80062    0.28943   1.00
H1       0.03148    0.79460    0.29567   1.00
C5       -0.02020   0.69780    0.20419   1.00
C5       0.02020    0.70397    0.19758   1.00
H1       -0.09955   0.79828    0.28906   1.00
H1       0.09990    0.79245    0.29445   1.00
H1       -0.09680   0.70563    0.20886   1.00
H1       0.09632    0.70496    0.20878   1.00
O3       -0.03961   0.66709    0.18697   1.00
O3       0.03901    0.68540    0.16711   1.00
Si1      -0.04247   0.62522    0.20954   1.00
Si1      0.04721    0.70966    0.12696   1.00
C6       -0.07538   0.60265    0.17696   1.00
C6       0.00402    0.60330    0.20727   1.00
C6       -0.06253   0.62890    0.25685   1.00
C6       0.03307    0.75923    0.12504   1.00
C6       0.09802    0.70618    0.12145   1.00
C6       0.02523    0.68344    0.08859   1.00
C6       -0.11194   0.62748    0.16512   1.00
H2       -0.05791   0.60017    0.15042   1.00
C6       -0.09147   0.56052    0.18506   1.00
H2       0.01642    0.61686    0.18126   1.00
C6       0.03366    0.61170    0.24096   1.00
C6       0.00664    0.55828    0.20004   1.00
H2       -0.08831   0.64700    0.25182   1.00
C6       -0.07772   0.59036    0.27622   1.00
C6       -0.03849   0.64943    0.29009   1.00
C6       -0.01071   0.76940    0.13295   1.00
C6       0.05775    0.79060    0.14734   1.00
H2       0.03788    0.76642    0.09438   1.00
H2       0.10949    0.72445    0.14486   1.00
C6       0.11622    0.66483    0.12831   1.00
C6       0.11607    0.72207    0.08266   1.00
H2       0.04625    0.66045    0.08191   1.00
C6       -0.01336   0.66153    0.09863   1.00
C6       0.01756    0.70531    0.04920   1.00
H2       -0.10346   0.65570    0.15296   1.00
H2       -0.13090   0.63283    0.19020   1.00
H2       -0.12917   0.61269    0.14270   1.00
H2       -0.09608   0.54511    0.15749   1.00
H2       -0.07178   0.54292    0.20261   1.00
H2       -0.11964   0.56100    0.19996   1.00
H2       0.06328    0.60364    0.23222   1.00
H2       0.03468    0.64251    0.24856   1.00
H2       0.02648    0.59496    0.26708   1.00
H2       -0.00862   0.54986    0.17339   1.00
H2       0.03692    0.54888    0.19627   1.00
H2       -0.00550   0.54196    0.22459   1.00
H2       -0.05514   0.56787    0.27633   1.00
H2       -0.08708   0.59497    0.30641   1.00
H2       -0.10332   0.57921    0.26122   1.00
H2       -0.01902   0.62915    0.30507   1.00
H2       -0.02068   0.67343    0.27982   1.00
H2       -0.05828   0.66140    0.31210   1.00
H2       -0.01688   0.77146    0.16406   1.00
H2       -0.01809   0.79766    0.12011   1.00
H2       -0.03048   0.74801    0.12030   1.00
H2       0.04875    0.82005    0.13891   1.00
H2       0.05426    0.78854    0.17882   1.00
H2       0.08878    0.78850    0.14057   1.00
H2       0.14798    0.66691    0.13083   1.00
H2       0.10565    0.65181    0.15544   1.00
H2       0.10965    0.64479    0.10445   1.00
H2       0.10584    0.75150    0.07608   1.00
H2       0.14788    0.72360    0.08500   1.00
H2       0.10915    0.70314    0.05798   1.00
H2       -0.03656   0.68148    0.10735   1.00
H2       -0.02381   0.64421    0.07399   1.00
H2       -0.00834   0.64143    0.12259   1.00
H2       0.00956    0.68472    0.02617   1.00
H2       -0.00622   0.72637    0.05201   1.00
H2       0.04343    0.72079    0.03907   1.00
C4       0.52084    0.75302    0.24961   1.00
C4       0.47912    0.75245    0.24915   1.00
C3       0.54364    0.77960    0.22746   1.00
C3       0.45616    0.77595    0.22389   1.00
C3       0.54123    0.72519    0.27296   1.00
C3       0.45886    0.72718    0.27534   1.00
C2       0.60512    0.75102    0.25062   1.00
C2       0.39488    0.74898    0.24938   1.00
C3       0.58462    0.77851    0.22777   1.00
C3       0.41519    0.77454    0.22424   1.00
C3       0.58258    0.72504    0.27343   1.00
C3       0.41762    0.72499    0.27406   1.00
H1       0.53115    0.80062    0.21057   1.00
H1       0.46852    0.79460    0.20433   1.00
C5       0.52020    0.69780    0.29581   1.00
C5       0.47980    0.70397    0.30242   1.00
H1       0.59955    0.79828    0.21094   1.00
H1       0.40010    0.79245    0.20555   1.00
H1       0.59680    0.70563    0.29114   1.00
H1       0.40368    0.70496    0.29122   1.00
O3       0.53961    0.66709    0.31303   1.00
O3       0.46099    0.68540    0.33289   1.00
Si1      0.54247    0.62522    0.29046   1.00
Si1      0.45279    0.70966    0.37304   1.00
C6       0.57538    0.60265    0.32304   1.00
C6       0.49598    0.60330    0.29273   1.00
C6       0.56253    0.62890    0.24315   1.00
C6       0.46693    0.75923    0.37496   1.00
C6       0.40198    0.70618    0.37855   1.00
C6       0.47477    0.68344    0.41141   1.00
C6       0.61194    0.62748    0.33488   1.00
H2       0.55791    0.60017    0.34958   1.00
C6       0.59147    0.56052    0.31494   1.00
H2       0.48358    0.61686    0.31874   1.00
C6       0.46634    0.61170    0.25904   1.00
C6       0.49336    0.55828    0.29996   1.00
H2       0.58831    0.64700    0.24818   1.00
C6       0.57772    0.59036    0.22378   1.00
C6       0.53849    0.64943    0.20991   1.00
C6       0.51071    0.76940    0.36705   1.00
C6       0.44225    0.79060    0.35266   1.00
H2       0.46212    0.76642    0.40562   1.00
H2       0.39051    0.72445    0.35514   1.00
C6       0.38378    0.66483    0.37169   1.00
C6       0.38393    0.72207    0.41734   1.00
H2       0.45375    0.66045    0.41809   1.00
C6       0.51336    0.66153    0.40137   1.00
C6       0.48244    0.70531    0.45080   1.00
H2       0.60346    0.65570    0.34704   1.00
H2       0.63090    0.63283    0.30980   1.00
H2       0.62917    0.61269    0.35730   1.00
H2       0.59608    0.54511    0.34251   1.00
H2       0.57178    0.54292    0.29739   1.00
H2       0.61964    0.56100    0.30004   1.00
H2       0.43672    0.60364    0.26778   1.00
H2       0.46532    0.64251    0.25144   1.00
H2       0.47352    0.59496    0.23292   1.00
H2       0.50862    0.54986    0.32661   1.00
H2       0.46308    0.54888    0.30373   1.00
H2       0.50550    0.54196    0.27541   1.00
H2       0.55514    0.56787    0.22367   1.00
H2       0.58708    0.59497    0.19359   1.00
H2       0.60332    0.57921    0.23878   1.00
H2       0.51902    0.62915    0.19493   1.00
H2       0.52068    0.67343    0.22018   1.00
H2       0.55828    0.66140    0.18790   1.00
H2       0.51688    0.77146    0.33594   1.00
H2       0.51809    0.79766    0.37989   1.00
H2       0.53048    0.74801    0.37970   1.00
H2       0.45125    0.82005    0.36109   1.00
H2       0.44574    0.78854    0.32118   1.00
H2       0.41122    0.78850    0.35943   1.00
H2       0.35202    0.66691    0.36917   1.00
H2       0.39435    0.65181    0.34456   1.00
H2       0.39035    0.64479    0.39555   1.00
H2       0.39416    0.75150    0.42392   1.00
H2       0.35212    0.72360    0.41500   1.00
H2       0.39085    0.70314    0.44202   1.00
H2       0.53656    0.68148    0.39265   1.00
H2       0.52381    0.64421    0.42601   1.00
H2       0.50834    0.64143    0.37741   1.00
H2       0.49044    0.68472    0.47383   1.00
H2       0.50622    0.72637    0.44799   1.00
H2       0.45657    0.72079    0.46093   1.00
C4       0.25039    0.47916    0.25302   1.00
C4       0.25085    0.52088    0.25245   1.00
C3       0.27254    0.45636    0.27960   1.00
C3       0.27611    0.54384    0.27595   1.00
C3       0.22704    0.45877    0.22519   1.00
C3       0.22466    0.54114    0.22718   1.00
C2       0.24938    0.39488    0.25102   1.00
C2       0.25062    0.60512    0.24898   1.00
C3       0.27223    0.41538    0.27851   1.00
C3       0.27576    0.58481    0.27454   1.00
C3       0.22657    0.41742    0.22504   1.00
C3       0.22594    0.58238    0.22499   1.00
H1       0.28943    0.46885    0.30062   1.00
H1       0.29567    0.53148    0.29460   1.00
C5       0.20419    0.47980    0.19780   1.00
C5       0.19758    0.52020    0.20397   1.00
H1       0.28906    0.40045    0.29828   1.00
H1       0.29445    0.59990    0.29245   1.00
H1       0.20886    0.40320    0.20563   1.00
H1       0.20878    0.59632    0.20496   1.00
O3       0.18697    0.46039    0.16709   1.00
O3       0.16711    0.53901    0.18540   1.00
Si1      0.20954    0.45753    0.12522   1.00
Si1      0.12696    0.54721    0.20966   1.00
C6       0.17696    0.42462    0.10265   1.00
C6       0.20727    0.50402    0.10330   1.00
C6       0.25685    0.43747    0.12890   1.00
C6       0.12504    0.53307    0.25923   1.00
C6       0.12145    0.59802    0.20618   1.00
C6       0.08859    0.52523    0.18344   1.00
C6       0.16512    0.38806    0.12748   1.00
H2       0.15042    0.44209    0.10017   1.00
C6       0.18506    0.40853    0.06052   1.00
H2       0.18126    0.51642    0.11686   1.00
C6       0.24096    0.53366    0.11170   1.00
C6       0.20004    0.50664    0.05828   1.00
H2       0.25182    0.41169    0.14700   1.00
C6       0.27622    0.42228    0.09036   1.00
C6       0.29009    0.46151    0.14943   1.00
C6       0.13295    0.48929    0.26940   1.00
C6       0.14734    0.55775    0.29060   1.00
H2       0.09438    0.53788    0.26642   1.00
H2       0.14486    0.60949    0.22445   1.00
C6       0.12831    0.61622    0.16483   1.00
C6       0.08266    0.61607    0.22207   1.00
H2       0.08191    0.54625    0.16045   1.00
C6       0.09863    0.48664    0.16153   1.00
C6       0.04920    0.51756    0.20531   1.00
H2       0.15296    0.39654    0.15570   1.00
H2       0.19020    0.36910    0.13283   1.00
H2       0.14270    0.37083    0.11269   1.00
H2       0.15749    0.40392    0.04511   1.00
H2       0.20261    0.42822    0.04292   1.00
H2       0.19996    0.38036    0.06100   1.00
H2       0.23222    0.56328    0.10364   1.00
H2       0.24856    0.53468    0.14251   1.00
H2       0.26708    0.52648    0.09496   1.00
H2       0.17339    0.49138    0.04986   1.00
H2       0.19627    0.53692    0.04888   1.00
H2       0.22459    0.49450    0.04196   1.00
H2       0.27633    0.44486    0.06787   1.00
H2       0.30641    0.41292    0.09497   1.00
H2       0.26122    0.39668    0.07921   1.00
H2       0.30507    0.48098    0.12915   1.00
H2       0.27982    0.47932    0.17343   1.00
H2       0.31210    0.44172    0.16140   1.00
H2       0.16406    0.48312    0.27146   1.00
H2       0.12011    0.48191    0.29766   1.00
H2       0.12030    0.46952    0.24801   1.00
H2       0.13891    0.54875    0.32005   1.00
H2       0.17882    0.55426    0.28854   1.00
H2       0.14057    0.58878    0.28850   1.00
H2       0.13083    0.64798    0.16691   1.00
H2       0.15544    0.60565    0.15181   1.00
H2       0.10445    0.60965    0.14479   1.00
H2       0.07608    0.60584    0.25150   1.00
H2       0.08500    0.64788    0.22360   1.00
H2       0.05798    0.60915    0.20314   1.00
H2       0.10735    0.46344    0.18148   1.00
H2       0.07399    0.47619    0.14421   1.00
H2       0.12259    0.49166    0.14143   1.00
H2       0.02617    0.50956    0.18472   1.00
H2       0.05201    0.49378    0.22637   1.00
H2       0.03907    0.54343    0.22079   1.00
C4       0.25302    0.75039    -0.02084   1.00
C4       0.25245    0.75085    0.02088   1.00
C3       0.27960    0.77254    -0.04364   1.00
C3       0.27595    0.77611    0.04384   1.00
C3       0.22519    0.72704    -0.04123   1.00
C3       0.22718    0.72466    0.04114   1.00
C2       0.25102    0.74938    -0.10512   1.00
C2       0.24898    0.75062    0.10512   1.00
C3       0.27851    0.77223    -0.08462   1.00
C3       0.27454    0.77576    0.08481   1.00
C3       0.22504    0.72657    -0.08258   1.00
C3       0.22499    0.72594    0.08238   1.00
H1       0.30062    0.78943    -0.03115   1.00
H1       0.29460    0.79567    0.03148   1.00
C5       0.19780    0.70419    -0.02020   1.00
C5       0.20397    0.69758    0.02020   1.00
H1       0.29828    0.78906    -0.09955   1.00
H1       0.29245    0.79445    0.09990   1.00
H1       0.20563    0.70886    -0.09680   1.00
H1       0.20496    0.70878    0.09632   1.00
O3       0.16709    0.68697    -0.03961   1.00
O3       0.18540    0.66711    0.03901   1.00
Si1      0.12522    0.70954    -0.04247   1.00
Si1      0.20966    0.62696    0.04721   1.00
C6       0.10265    0.67696    -0.07538   1.00
C6       0.10330    0.70727    0.00402   1.00
C6       0.12890    0.75685    -0.06253   1.00
C6       0.25923    0.62504    0.03307   1.00
C6       0.20618    0.62145    0.09802   1.00
C6       0.18344    0.58859    0.02523   1.00
C6       0.12748    0.66512    -0.11194   1.00
H2       0.10017    0.65042    -0.05791   1.00
C6       0.06052    0.68506    -0.09147   1.00
H2       0.11686    0.68126    0.01642   1.00
C6       0.11170    0.74096    0.03366   1.00
C6       0.05828    0.70004    0.00664   1.00
H2       0.14700    0.75182    -0.08831   1.00
C6       0.09036    0.77622    -0.07772   1.00
C6       0.14943    0.79009    -0.03849   1.00
C6       0.26940    0.63295    -0.01071   1.00
C6       0.29060    0.64734    0.05775   1.00
H2       0.26642    0.59438    0.03788   1.00
H2       0.22445    0.64486    0.10949   1.00
C6       0.16483    0.62831    0.11622   1.00
C6       0.22207    0.58266    0.11607   1.00
H2       0.16045    0.58191    0.04625   1.00
C6       0.16153    0.59863    -0.01336   1.00
C6       0.20531    0.54920    0.01756   1.00
H2       0.15570    0.65296    -0.10346   1.00
H2       0.13283    0.69020    -0.13090   1.00
H2       0.11269    0.64270    -0.12917   1.00
H2       0.04511    0.65749    -0.09608   1.00
H2       0.04292    0.70261    -0.07178   1.00
H2       0.06100    0.69996    -0.11964   1.00
H2       0.10364    0.73222    0.06328   1.00
H2       0.14251    0.74856    0.03468   1.00
H2       0.09496    0.76708    0.02648   1.00
H2       0.04986    0.67339    -0.00862   1.00
H2       0.04888    0.69627    0.03692   1.00
H2       0.04196    0.72459    -0.00550   1.00
H2       0.06787    0.77633    -0.05514   1.00
H2       0.09497    0.80641    -0.08708   1.00
H2       0.07921    0.76122    -0.10332   1.00
H2       0.12915    0.80507    -0.01902   1.00
H2       0.17343    0.77982    -0.02068   1.00
H2       0.16140    0.81210    -0.05828   1.00
H2       0.27146    0.66406    -0.01688   1.00
H2       0.29766    0.62011    -0.01809   1.00
H2       0.24801    0.62030    -0.03048   1.00
H2       0.32005    0.63891    0.04875   1.00
H2       0.28854    0.67882    0.05426   1.00
H2       0.28850    0.64057    0.08878   1.00
H2       0.16691    0.63083    0.14798   1.00
H2       0.15181    0.65544    0.10565   1.00
H2       0.14479    0.60445    0.10965   1.00
H2       0.25150    0.57608    0.10584   1.00
H2       0.22360    0.58500    0.14788   1.00
H2       0.20314    0.55798    0.10915   1.00
H2       0.18148    0.60735    -0.03656   1.00
H2       0.14421    0.57399    -0.02381   1.00
H2       0.14143    0.62259    -0.00834   1.00
H2       0.18472    0.52617    0.00956   1.00
H2       0.22637    0.55201    -0.00622   1.00
H2       0.22079    0.53907    0.04343   1.00
C4       0.75302    0.24961    0.52084   1.00
C4       0.75245    0.24915    0.47912   1.00
C3       0.77960    0.22746    0.54364   1.00
C3       0.77595    0.22389    0.45616   1.00
C3       0.72519    0.27296    0.54123   1.00
C3       0.72718    0.27534    0.45886   1.00
C2       0.75102    0.25062    0.60512   1.00
C2       0.74898    0.24938    0.39488   1.00
C3       0.77851    0.22777    0.58462   1.00
C3       0.77454    0.22424    0.41519   1.00
C3       0.72504    0.27343    0.58258   1.00
C3       0.72499    0.27406    0.41762   1.00
H1       0.80062    0.21057    0.53115   1.00
H1       0.79460    0.20433    0.46852   1.00
C5       0.69780    0.29581    0.52020   1.00
C5       0.70397    0.30242    0.47980   1.00
H1       0.79828    0.21094    0.59955   1.00
H1       0.79245    0.20555    0.40010   1.00
H1       0.70563    0.29114    0.59680   1.00
H1       0.70496    0.29122    0.40368   1.00
O3       0.66709    0.31303    0.53961   1.00
O3       0.68540    0.33289    0.46099   1.00
Si1      0.62522    0.29046    0.54247   1.00
Si1      0.70966    0.37304    0.45279   1.00
C6       0.60265    0.32304    0.57538   1.00
C6       0.60330    0.29273    0.49598   1.00
C6       0.62890    0.24315    0.56253   1.00
C6       0.75923    0.37496    0.46693   1.00
C6       0.70618    0.37855    0.40198   1.00
C6       0.68344    0.41141    0.47477   1.00
C6       0.62748    0.33488    0.61194   1.00
H2       0.60017    0.34958    0.55791   1.00
C6       0.56052    0.31494    0.59147   1.00
H2       0.61686    0.31874    0.48358   1.00
C6       0.61170    0.25904    0.46634   1.00
C6       0.55828    0.29996    0.49336   1.00
H2       0.64700    0.24818    0.58831   1.00
C6       0.59036    0.22378    0.57772   1.00
C6       0.64943    0.20991    0.53849   1.00
C6       0.76940    0.36705    0.51071   1.00
C6       0.79060    0.35266    0.44225   1.00
H2       0.76642    0.40562    0.46212   1.00
H2       0.72445    0.35514    0.39051   1.00
C6       0.66483    0.37169    0.38378   1.00
C6       0.72207    0.41734    0.38393   1.00
H2       0.66045    0.41809    0.45375   1.00
C6       0.66153    0.40137    0.51336   1.00
C6       0.70531    0.45080    0.48244   1.00
H2       0.65570    0.34704    0.60346   1.00
H2       0.63283    0.30980    0.63090   1.00
H2       0.61269    0.35730    0.62917   1.00
H2       0.54511    0.34251    0.59608   1.00
H2       0.54292    0.29739    0.57178   1.00
H2       0.56100    0.30004    0.61964   1.00
H2       0.60364    0.26778    0.43672   1.00
H2       0.64251    0.25144    0.46532   1.00
H2       0.59496    0.23292    0.47352   1.00
H2       0.54986    0.32661    0.50862   1.00
H2       0.54888    0.30373    0.46308   1.00
H2       0.54196    0.27541    0.50550   1.00
H2       0.56787    0.22367    0.55514   1.00
H2       0.59497    0.19359    0.58708   1.00
H2       0.57921    0.23878    0.60332   1.00
H2       0.62915    0.19493    0.51902   1.00
H2       0.67343    0.22018    0.52068   1.00
H2       0.66140    0.18790    0.55828   1.00
H2       0.77146    0.33594    0.51688   1.00
H2       0.79766    0.37989    0.51809   1.00
H2       0.74801    0.37970    0.53048   1.00
H2       0.82005    0.36109    0.45125   1.00
H2       0.78854    0.32118    0.44574   1.00
H2       0.78850    0.35943    0.41122   1.00
H2       0.66691    0.36917    0.35202   1.00
H2       0.65181    0.34456    0.39435   1.00
H2       0.64479    0.39555    0.39035   1.00
H2       0.75150    0.42392    0.39416   1.00
H2       0.72360    0.41500    0.35212   1.00
H2       0.70314    0.44202    0.39085   1.00
H2       0.68148    0.39265    0.53656   1.00
H2       0.64421    0.42601    0.52381   1.00
H2       0.64143    0.37741    0.50834   1.00
H2       0.68472    0.47383    0.49044   1.00
H2       0.72637    0.44799    0.50622   1.00
H2       0.72079    0.46093    0.45657   1.00
C4       0.74961    0.52084    0.25302   1.00
C4       0.74915    0.47912    0.25245   1.00
C3       0.72746    0.54364    0.27960   1.00
C3       0.72389    0.45616    0.27595   1.00
C3       0.77296    0.54123    0.22519   1.00
C3       0.77534    0.45886    0.22718   1.00
C2       0.75062    0.60512    0.25102   1.00
C2       0.74938    0.39488    0.24898   1.00
C3       0.72777    0.58462    0.27851   1.00
C3       0.72424    0.41519    0.27454   1.00
C3       0.77343    0.58258    0.22504   1.00
C3       0.77406    0.41762    0.22499   1.00
H1       0.71057    0.53115    0.30062   1.00
H1       0.70433    0.46852    0.29460   1.00
C5       0.79581    0.52020    0.19780   1.00
C5       0.80242    0.47980    0.20397   1.00
H1       0.71094    0.59955    0.29828   1.00
H1       0.70555    0.40010    0.29245   1.00
H1       0.79114    0.59680    0.20563   1.00
H1       0.79122    0.40368    0.20496   1.00
O3       0.81303    0.53961    0.16709   1.00
O3       0.83289    0.46099    0.18540   1.00
Si1      0.79046    0.54247    0.12522   1.00
Si1      0.87304    0.45279    0.20966   1.00
C6       0.82304    0.57538    0.10265   1.00
C6       0.79273    0.49598    0.10330   1.00
C6       0.74315    0.56253    0.12890   1.00
C6       0.87496    0.46693    0.25923   1.00
C6       0.87855    0.40198    0.20618   1.00
C6       0.91141    0.47477    0.18344   1.00
C6       0.83488    0.61194    0.12748   1.00
H2       0.84958    0.55791    0.10017   1.00
C6       0.81494    0.59147    0.06052   1.00
H2       0.81874    0.48358    0.11686   1.00
C6       0.75904    0.46634    0.11170   1.00
C6       0.79996    0.49336    0.05828   1.00
H2       0.74818    0.58831    0.14700   1.00
C6       0.72378    0.57772    0.09036   1.00
C6       0.70991    0.53849    0.14943   1.00
C6       0.86705    0.51071    0.26940   1.00
C6       0.85266    0.44225    0.29060   1.00
H2       0.90562    0.46212    0.26642   1.00
H2       0.85514    0.39051    0.22445   1.00
C6       0.87169    0.38378    0.16483   1.00
C6       0.91734    0.38393    0.22207   1.00
H2       0.91809    0.45375    0.16045   1.00
C6       0.90137    0.51336    0.16153   1.00
C6       0.95080    0.48244    0.20531   1.00
H2       0.84704    0.60346    0.15570   1.00
H2       0.80980    0.63090    0.13283   1.00
H2       0.85730    0.62917    0.11269   1.00
H2       0.84251    0.59608    0.04511   1.00
H2       0.79739    0.57178    0.04292   1.00
H2       0.80004    0.61964    0.06100   1.00
H2       0.76778    0.43672    0.10364   1.00
H2       0.75144    0.46532    0.14251   1.00
H2       0.73292    0.47352    0.09496   1.00
H2       0.82661    0.50862    0.04986   1.00
H2       0.80373    0.46308    0.04888   1.00
H2       0.77541    0.50550    0.04196   1.00
H2       0.72367    0.55514    0.06787   1.00
H2       0.69359    0.58708    0.09497   1.00
H2       0.73878    0.60332    0.07921   1.00
H2       0.69493    0.51902    0.12915   1.00
H2       0.72018    0.52068    0.17343   1.00
H2       0.68790    0.55828    0.16140   1.00
H2       0.83594    0.51688    0.27146   1.00
H2       0.87989    0.51809    0.29766   1.00
H2       0.87970    0.53048    0.24801   1.00
H2       0.86109    0.45125    0.32005   1.00
H2       0.82118    0.44574    0.28854   1.00
H2       0.85943    0.41122    0.28850   1.00
H2       0.86917    0.35202    0.16691   1.00
H2       0.84456    0.39435    0.15181   1.00
H2       0.89555    0.39035    0.14479   1.00
H2       0.92392    0.39416    0.25150   1.00
H2       0.91500    0.35212    0.22360   1.00
H2       0.94202    0.39085    0.20314   1.00
H2       0.89265    0.53656    0.18148   1.00
H2       0.92601    0.52381    0.14421   1.00
H2       0.87741    0.50834    0.14143   1.00
H2       0.97383    0.49044    0.18472   1.00
H2       0.94799    0.50622    0.22637   1.00
H2       0.96093    0.45657    0.22079   1.00
C4       0.47916    0.25302    0.25039   1.00
C4       0.52088    0.25245    0.25085   1.00
C3       0.45636    0.27960    0.27254   1.00
C3       0.54384    0.27595    0.27611   1.00
C3       0.45877    0.22519    0.22704   1.00
C3       0.54114    0.22718    0.22466   1.00
C2       0.39488    0.25102    0.24938   1.00
C2       0.60512    0.24898    0.25062   1.00
C3       0.41538    0.27851    0.27223   1.00
C3       0.58481    0.27454    0.27576   1.00
C3       0.41742    0.22504    0.22657   1.00
C3       0.58238    0.22499    0.22594   1.00
H1       0.46885    0.30062    0.28943   1.00
H1       0.53148    0.29460    0.29567   1.00
C5       0.47980    0.19780    0.20419   1.00
C5       0.52020    0.20397    0.19758   1.00
H1       0.40045    0.29828    0.28906   1.00
H1       0.59990    0.29245    0.29445   1.00
H1       0.40320    0.20563    0.20886   1.00
H1       0.59632    0.20496    0.20878   1.00
O3       0.46039    0.16709    0.18697   1.00
O3       0.53901    0.18540    0.16711   1.00
Si1      0.45753    0.12522    0.20954   1.00
Si1      0.54721    0.20966    0.12696   1.00
C6       0.42462    0.10265    0.17696   1.00
C6       0.50402    0.10330    0.20727   1.00
C6       0.43747    0.12890    0.25685   1.00
C6       0.53307    0.25923    0.12504   1.00
C6       0.59802    0.20618    0.12145   1.00
C6       0.52523    0.18344    0.08859   1.00
C6       0.38806    0.12748    0.16512   1.00
H2       0.44209    0.10017    0.15042   1.00
C6       0.40853    0.06052    0.18506   1.00
H2       0.51642    0.11686    0.18126   1.00
C6       0.53366    0.11170    0.24096   1.00
C6       0.50664    0.05828    0.20004   1.00
H2       0.41169    0.14700    0.25182   1.00
C6       0.42228    0.09036    0.27622   1.00
C6       0.46151    0.14943    0.29009   1.00
C6       0.48929    0.26940    0.13295   1.00
C6       0.55775    0.29060    0.14734   1.00
H2       0.53788    0.26642    0.09438   1.00
H2       0.60949    0.22445    0.14486   1.00
C6       0.61622    0.16483    0.12831   1.00
C6       0.61607    0.22207    0.08266   1.00
H2       0.54625    0.16045    0.08191   1.00
C6       0.48664    0.16153    0.09863   1.00
C6       0.51756    0.20531    0.04920   1.00
H2       0.39654    0.15570    0.15296   1.00
H2       0.36910    0.13283    0.19020   1.00
H2       0.37083    0.11269    0.14270   1.00
H2       0.40392    0.04511    0.15749   1.00
H2       0.42822    0.04292    0.20261   1.00
H2       0.38036    0.06100    0.19996   1.00
H2       0.56328    0.10364    0.23222   1.00
H2       0.53468    0.14251    0.24856   1.00
H2       0.52648    0.09496    0.26708   1.00
H2       0.49138    0.04986    0.17339   1.00
H2       0.53692    0.04888    0.19627   1.00
H2       0.49450    0.04196    0.22459   1.00
H2       0.44486    0.06787    0.27633   1.00
H2       0.41292    0.09497    0.30641   1.00
H2       0.39668    0.07921    0.26122   1.00
H2       0.48098    0.12915    0.30507   1.00
H2       0.47932    0.17343    0.27982   1.00
H2       0.44172    0.16140    0.31210   1.00
H2       0.48312    0.27146    0.16406   1.00
H2       0.48191    0.29766    0.12011   1.00
H2       0.46952    0.24801    0.12030   1.00
H2       0.54875    0.32005    0.13891   1.00
H2       0.55426    0.28854    0.17882   1.00
H2       0.58878    0.28850    0.14057   1.00
H2       0.64798    0.16691    0.13083   1.00
H2       0.60565    0.15181    0.15544   1.00
H2       0.60965    0.14479    0.10445   1.00
H2       0.60584    0.25150    0.07608   1.00
H2       0.64788    0.22360    0.08500   1.00
H2       0.60915    0.20314    0.05798   1.00
H2       0.46344    0.18148    0.10735   1.00
H2       0.47619    0.14421    0.07399   1.00
H2       0.49166    0.14143    0.12259   1.00
H2       0.50956    0.18472    0.02617   1.00
H2       0.49378    0.22637    0.05201   1.00
H2       0.54343    0.22079    0.03907   1.00
C4       1.02084    0.25302    0.24961   1.00
C4       0.97912    0.25245    0.24915   1.00
C3       1.04364    0.27960    0.22746   1.00
C3       0.95616    0.27595    0.22389   1.00
C3       1.04123    0.22519    0.27296   1.00
C3       0.95886    0.22718    0.27534   1.00
C2       1.10512    0.25102    0.25062   1.00
C2       0.89488    0.24898    0.24938   1.00
C3       1.08462    0.27851    0.22777   1.00
C3       0.91519    0.27454    0.22424   1.00
C3       1.08258    0.22504    0.27343   1.00
C3       0.91762    0.22499    0.27406   1.00
H1       1.03115    0.30062    0.21057   1.00
H1       0.96852    0.29460    0.20433   1.00
C5       1.02020    0.19780    0.29581   1.00
C5       0.97980    0.20397    0.30242   1.00
H1       1.09955    0.29828    0.21094   1.00
H1       0.90010    0.29245    0.20555   1.00
H1       1.09680    0.20563    0.29114   1.00
H1       0.90368    0.20496    0.29122   1.00
O3       1.03961    0.16709    0.31303   1.00
O3       0.96099    0.18540    0.33289   1.00
Si1      1.04247    0.12522    0.29046   1.00
Si1      0.95279    0.20966    0.37304   1.00
C6       1.07538    0.10265    0.32304   1.00
C6       0.99598    0.10330    0.29273   1.00
C6       1.06253    0.12890    0.24315   1.00
C6       0.96693    0.25923    0.37496   1.00
C6       0.90198    0.20618    0.37855   1.00
C6       0.97477    0.18344    0.41141   1.00
C6       1.11194    0.12748    0.33488   1.00
H2       1.05791    0.10017    0.34958   1.00
C6       1.09147    0.06052    0.31494   1.00
H2       0.98358    0.11686    0.31874   1.00
C6       0.96634    0.11170    0.25904   1.00
C6       0.99336    0.05828    0.29996   1.00
H2       1.08831    0.14700    0.24818   1.00
C6       1.07772    0.09036    0.22378   1.00
C6       1.03849    0.14943    0.20991   1.00
C6       1.01071    0.26940    0.36705   1.00
C6       0.94225    0.29060    0.35266   1.00
H2       0.96212    0.26642    0.40562   1.00
H2       0.89051    0.22445    0.35514   1.00
C6       0.88378    0.16483    0.37169   1.00
C6       0.88393    0.22207    0.41734   1.00
H2       0.95375    0.16045    0.41809   1.00
C6       1.01336    0.16153    0.40137   1.00
C6       0.98244    0.20531    0.45080   1.00
H2       1.10346    0.15570    0.34704   1.00
H2       1.13090    0.13283    0.30980   1.00
H2       1.12917    0.11269    0.35730   1.00
H2       1.09608    0.04511    0.34251   1.00
H2       1.07178    0.04292    0.29739   1.00
H2       1.11964    0.06100    0.30004   1.00
H2       0.93672    0.10364    0.26778   1.00
H2       0.96532    0.14251    0.25144   1.00
H2       0.97352    0.09496    0.23292   1.00
H2       1.00862    0.04986    0.32661   1.00
H2       0.96308    0.04888    0.30373   1.00
H2       1.00550    0.04196    0.27541   1.00
H2       1.05514    0.06787    0.22367   1.00
H2       1.08708    0.09497    0.19359   1.00
H2       1.10332    0.07921    0.23878   1.00
H2       1.01902    0.12915    0.19493   1.00
H2       1.02068    0.17343    0.22018   1.00
H2       1.05828    0.16140    0.18790   1.00
H2       1.01688    0.27146    0.33594   1.00
H2       1.01809    0.29766    0.37989   1.00
H2       1.03048    0.24801    0.37970   1.00
H2       0.95125    0.32005    0.36109   1.00
H2       0.94574    0.28854    0.32118   1.00
H2       0.91122    0.28850    0.35943   1.00
H2       0.85202    0.16691    0.36917   1.00
H2       0.89435    0.15181    0.34456   1.00
H2       0.89035    0.14479    0.39555   1.00
H2       0.89416    0.25150    0.42392   1.00
H2       0.85212    0.22360    0.41500   1.00
H2       0.89085    0.20314    0.44202   1.00
H2       1.03656    0.18148    0.39265   1.00
H2       1.02381    0.14421    0.42601   1.00
H2       1.00834    0.14143    0.37741   1.00
H2       0.99044    0.18472    0.47383   1.00
H2       1.00622    0.22637    0.44799   1.00
H2       0.95657    0.22079    0.46093   1.00
C4       0.75039    -0.02084   0.25302   1.00
C4       0.75085    0.02088    0.25245   1.00
C3       0.77254    -0.04364   0.27960   1.00
C3       0.77611    0.04384    0.27595   1.00
C3       0.72704    -0.04123   0.22519   1.00
C3       0.72466    0.04114    0.22718   1.00
C2       0.74938    -0.10512   0.25102   1.00
C2       0.75062    0.10512    0.24898   1.00
C3       0.77223    -0.08462   0.27851   1.00
C3       0.77576    0.08481    0.27454   1.00
C3       0.72657    -0.08258   0.22504   1.00
C3       0.72594    0.08238    0.22499   1.00
H1       0.78943    -0.03115   0.30062   1.00
H1       0.79567    0.03148    0.29460   1.00
C5       0.70419    -0.02020   0.19780   1.00
C5       0.69758    0.02020    0.20397   1.00
H1       0.78906    -0.09955   0.29828   1.00
H1       0.79445    0.09990    0.29245   1.00
H1       0.70886    -0.09680   0.20563   1.00
H1       0.70878    0.09632    0.20496   1.00
O3       0.68697    -0.03961   0.16709   1.00
O3       0.66711    0.03901    0.18540   1.00
Si1      0.70954    -0.04247   0.12522   1.00
Si1      0.62696    0.04721    0.20966   1.00
C6       0.67696    -0.07538   0.10265   1.00
C6       0.70727    0.00402    0.10330   1.00
C6       0.75685    -0.06253   0.12890   1.00
C6       0.62504    0.03307    0.25923   1.00
C6       0.62145    0.09802    0.20618   1.00
C6       0.58859    0.02523    0.18344   1.00
C6       0.66512    -0.11194   0.12748   1.00
H2       0.65042    -0.05791   0.10017   1.00
C6       0.68506    -0.09147   0.06052   1.00
H2       0.68126    0.01642    0.11686   1.00
C6       0.74096    0.03366    0.11170   1.00
C6       0.70004    0.00664    0.05828   1.00
H2       0.75182    -0.08831   0.14700   1.00
C6       0.77622    -0.07772   0.09036   1.00
C6       0.79009    -0.03849   0.14943   1.00
C6       0.63295    -0.01071   0.26940   1.00
C6       0.64734    0.05775    0.29060   1.00
H2       0.59438    0.03788    0.26642   1.00
H2       0.64486    0.10949    0.22445   1.00
C6       0.62831    0.11622    0.16483   1.00
C6       0.58266    0.11607    0.22207   1.00
H2       0.58191    0.04625    0.16045   1.00
C6       0.59863    -0.01336   0.16153   1.00
C6       0.54920    0.01756    0.20531   1.00
H2       0.65296    -0.10346   0.15570   1.00
H2       0.69020    -0.13090   0.13283   1.00
H2       0.64270    -0.12917   0.11269   1.00
H2       0.65749    -0.09608   0.04511   1.00
H2       0.70261    -0.07178   0.04292   1.00
H2       0.69996    -0.11964   0.06100   1.00
H2       0.73222    0.06328    0.10364   1.00
H2       0.74856    0.03468    0.14251   1.00
H2       0.76708    0.02648    0.09496   1.00
H2       0.67339    -0.00862   0.04986   1.00
H2       0.69627    0.03692    0.04888   1.00
H2       0.72459    -0.00550   0.04196   1.00
H2       0.77633    -0.05514   0.06787   1.00
H2       0.80641    -0.08708   0.09497   1.00
H2       0.76122    -0.10332   0.07921   1.00
H2       0.80507    -0.01902   0.12915   1.00
H2       0.77982    -0.02068   0.17343   1.00
H2       0.81210    -0.05828   0.16140   1.00
H2       0.66406    -0.01688   0.27146   1.00
H2       0.62011    -0.01809   0.29766   1.00
H2       0.62030    -0.03048   0.24801   1.00
H2       0.63891    0.04875    0.32005   1.00
H2       0.67882    0.05426    0.28854   1.00
H2       0.64057    0.08878    0.28850   1.00
H2       0.63083    0.14798    0.16691   1.00
H2       0.65544    0.10565    0.15181   1.00
H2       0.60445    0.10965    0.14479   1.00
H2       0.57608    0.10584    0.25150   1.00
H2       0.58500    0.14788    0.22360   1.00
H2       0.55798    0.10915    0.20314   1.00
H2       0.60735    -0.03656   0.18148   1.00
H2       0.57399    -0.02381   0.14421   1.00
H2       0.62259    -0.00834   0.14143   1.00
H2       0.52617    0.00956    0.18472   1.00
H2       0.55201    -0.00622   0.22637   1.00
H2       0.53907    0.04343    0.22079   1.00
C4       0.75302    0.25039    -0.02084   1.00
C4       0.75245    0.25085    0.02088   1.00
C3       0.77960    0.27254    -0.04364   1.00
C3       0.77595    0.27611    0.04384   1.00
C3       0.72519    0.22704    -0.04123   1.00
C3       0.72718    0.22466    0.04114   1.00
C2       0.75102    0.24938    -0.10512   1.00
C2       0.74898    0.25062    0.10512   1.00
C3       0.77851    0.27223    -0.08462   1.00
C3       0.77454    0.27576    0.08481   1.00
C3       0.72504    0.22657    -0.08258   1.00
C3       0.72499    0.22594    0.08238   1.00
H1       0.80062    0.28943    -0.03115   1.00
H1       0.79460    0.29567    0.03148   1.00
C5       0.69780    0.20419    -0.02020   1.00
C5       0.70397    0.19758    0.02020   1.00
H1       0.79828    0.28906    -0.09955   1.00
H1       0.79245    0.29445    0.09990   1.00
H1       0.70563    0.20886    -0.09680   1.00
H1       0.70496    0.20878    0.09632   1.00
O3       0.66709    0.18697    -0.03961   1.00
O3       0.68540    0.16711    0.03901   1.00
Si1      0.62522    0.20954    -0.04247   1.00
Si1      0.70966    0.12696    0.04721   1.00
C6       0.60265    0.17696    -0.07538   1.00
C6       0.60330    0.20727    0.00402   1.00
C6       0.62890    0.25685    -0.06253   1.00
C6       0.75923    0.12504    0.03307   1.00
C6       0.70618    0.12145    0.09802   1.00
C6       0.68344    0.08859    0.02523   1.00
C6       0.62748    0.16512    -0.11194   1.00
H2       0.60017    0.15042    -0.05791   1.00
C6       0.56052    0.18506    -0.09147   1.00
H2       0.61686    0.18126    0.01642   1.00
C6       0.61170    0.24096    0.03366   1.00
C6       0.55828    0.20004    0.00664   1.00
H2       0.64700    0.25182    -0.08831   1.00
C6       0.59036    0.27622    -0.07772   1.00
C6       0.64943    0.29009    -0.03849   1.00
C6       0.76940    0.13295    -0.01071   1.00
C6       0.79060    0.14734    0.05775   1.00
H2       0.76642    0.09438    0.03788   1.00
H2       0.72445    0.14486    0.10949   1.00
C6       0.66483    0.12831    0.11622   1.00
C6       0.72207    0.08266    0.11607   1.00
H2       0.66045    0.08191    0.04625   1.00
C6       0.66153    0.09863    -0.01336   1.00
C6       0.70531    0.04920    0.01756   1.00
H2       0.65570    0.15296    -0.10346   1.00
H2       0.63283    0.19020    -0.13090   1.00
H2       0.61269    0.14270    -0.12917   1.00
H2       0.54511    0.15749    -0.09608   1.00
H2       0.54292    0.20261    -0.07178   1.00
H2       0.56100    0.19996    -0.11964   1.00
H2       0.60364    0.23222    0.06328   1.00
H2       0.64251    0.24856    0.03468   1.00
H2       0.59496    0.26708    0.02648   1.00
H2       0.54986    0.17339    -0.00862   1.00
H2       0.54888    0.19627    0.03692   1.00
H2       0.54196    0.22459    -0.00550   1.00
H2       0.56787    0.27633    -0.05514   1.00
H2       0.59497    0.30641    -0.08708   1.00
H2       0.57921    0.26122    -0.10332   1.00
H2       0.62915    0.30507    -0.01902   1.00
H2       0.67343    0.27982    -0.02068   1.00
H2       0.66140    0.31210    -0.05828   1.00
H2       0.77146    0.16406    -0.01688   1.00
H2       0.79766    0.12011    -0.01809   1.00
H2       0.74801    0.12030    -0.03048   1.00
H2       0.82005    0.13891    0.04875   1.00
H2       0.78854    0.17882    0.05426   1.00
H2       0.78850    0.14057    0.08878   1.00
H2       0.66691    0.13083    0.14798   1.00
H2       0.65181    0.15544    0.10565   1.00
H2       0.64479    0.10445    0.10965   1.00
H2       0.75150    0.07608    0.10584   1.00
H2       0.72360    0.08500    0.14788   1.00
H2       0.70314    0.05798    0.10915   1.00
H2       0.68148    0.10735    -0.03656   1.00
H2       0.64421    0.07399    -0.02381   1.00
H2       0.64143    0.12259    -0.00834   1.00
H2       0.68472    0.02617    0.00956   1.00
H2       0.72637    0.05201    -0.00622   1.00
H2       0.72079    0.03907    0.04343   1.00
