data_IRMOF10_SG202_Ligand1_label_k.

_audit_creation_method             'generated by an auxiliary program of Tobunporous'

_symmetry_space_group_name_H-M     'P 1'
_symmetry_Int_Tables_number        1
_symmetry_cell_setting             triclinic

_cell_length_a                    34.2800
_cell_length_b                    34.2800
_cell_length_c                    34.2800
_cell_angle_alpha                 90.0000
_cell_angle_beta                  90.0000
_cell_angle_gamma                 90.0000

loop_
_atom_site_label
_atom_site_fract_x
_atom_site_fract_y
_atom_site_fract_z
_atom_site_occupancy
O1       0.75000    0.75000    0.75000   1.00
Zn1      0.71720    0.78280    0.78280   1.00
Zn1      0.78280    0.71720    0.78280   1.00
Zn1      0.78280    0.78280    0.71720   1.00
Zn1      0.71720    0.71720    0.71720   1.00
O2       0.72650    0.77350    0.83820   1.00
O2       0.72650    0.83820    0.77350   1.00
O2       0.66180    0.77350    0.77350   1.00
O2       0.77350    0.72650    0.83820   1.00
O2       0.83820    0.72650    0.77350   1.00
O2       0.77350    0.66180    0.77350   1.00
O2       0.77350    0.83820    0.72650   1.00
O2       0.83820    0.77350    0.72650   1.00
O2       0.77350    0.77350    0.66180   1.00
O2       0.66180    0.72650    0.72650   1.00
O2       0.72650    0.66180    0.72650   1.00
O2       0.72650    0.72650    0.66180   1.00
C1       0.75000    0.75000    0.85520   1.00
C1       0.75000    0.85520    0.75000   1.00
C1       0.64480    0.75000    0.75000   1.00
C1       0.85520    0.75000    0.75000   1.00
C1       0.75000    0.64480    0.75000   1.00
C1       0.75000    0.75000    0.64480   1.00
O1       0.25000    0.25000    0.75000   1.00
Zn1      0.21720    0.28280    0.78280   1.00
Zn1      0.28280    0.21720    0.78280   1.00
Zn1      0.28280    0.28280    0.71720   1.00
Zn1      0.21720    0.21720    0.71720   1.00
O2       0.22650    0.27350    0.83820   1.00
O2       0.22650    0.33820    0.77350   1.00
O2       0.16180    0.27350    0.77350   1.00
O2       0.27350    0.22650    0.83820   1.00
O2       0.33820    0.22650    0.77350   1.00
O2       0.27350    0.16180    0.77350   1.00
O2       0.27350    0.33820    0.72650   1.00
O2       0.33820    0.27350    0.72650   1.00
O2       0.27350    0.27350    0.66180   1.00
O2       0.16180    0.22650    0.72650   1.00
O2       0.22650    0.16180    0.72650   1.00
O2       0.22650    0.22650    0.66180   1.00
C1       0.25000    0.25000    0.85520   1.00
C1       0.25000    0.35520    0.75000   1.00
C1       0.14480    0.25000    0.75000   1.00
C1       0.35520    0.25000    0.75000   1.00
C1       0.25000    0.14480    0.75000   1.00
C1       0.25000    0.25000    0.64480   1.00
O1       0.25000    0.75000    0.25000   1.00
Zn1      0.21720    0.78280    0.28280   1.00
Zn1      0.28280    0.71720    0.28280   1.00
Zn1      0.28280    0.78280    0.21720   1.00
Zn1      0.21720    0.71720    0.21720   1.00
O2       0.22650    0.77350    0.33820   1.00
O2       0.22650    0.83820    0.27350   1.00
O2       0.16180    0.77350    0.27350   1.00
O2       0.27350    0.72650    0.33820   1.00
O2       0.33820    0.72650    0.27350   1.00
O2       0.27350    0.66180    0.27350   1.00
O2       0.27350    0.83820    0.22650   1.00
O2       0.33820    0.77350    0.22650   1.00
O2       0.27350    0.77350    0.16180   1.00
O2       0.16180    0.72650    0.22650   1.00
O2       0.22650    0.66180    0.22650   1.00
O2       0.22650    0.72650    0.16180   1.00
C1       0.25000    0.75000    0.35520   1.00
C1       0.25000    0.85520    0.25000   1.00
C1       0.14480    0.75000    0.25000   1.00
C1       0.35520    0.75000    0.25000   1.00
C1       0.25000    0.64480    0.25000   1.00
C1       0.25000    0.75000    0.14480   1.00
O1       0.75000    0.25000    0.25000   1.00
Zn1      0.71720    0.28280    0.28280   1.00
Zn1      0.78280    0.21720    0.28280   1.00
Zn1      0.78280    0.28280    0.21720   1.00
Zn1      0.71720    0.21720    0.21720   1.00
O2       0.72650    0.27350    0.33820   1.00
O2       0.72650    0.33820    0.27350   1.00
O2       0.66180    0.27350    0.27350   1.00
O2       0.77350    0.22650    0.33820   1.00
O2       0.83820    0.22650    0.27350   1.00
O2       0.77350    0.16180    0.27350   1.00
O2       0.77350    0.33820    0.22650   1.00
O2       0.83820    0.27350    0.22650   1.00
O2       0.77350    0.27350    0.16180   1.00
O2       0.66180    0.22650    0.22650   1.00
O2       0.72650    0.16180    0.22650   1.00
O2       0.72650    0.22650    0.16180   1.00
C1       0.75000    0.25000    0.35520   1.00
C1       0.75000    0.35520    0.25000   1.00
C1       0.64480    0.25000    0.25000   1.00
C1       0.85520    0.25000    0.25000   1.00
C1       0.75000    0.14480    0.25000   1.00
C1       0.75000    0.25000    0.14480   1.00
O1       0.25000    0.25000    0.25000   1.00
Zn1      0.28280    0.21720    0.21720   1.00
Zn1      0.21720    0.28280    0.21720   1.00
Zn1      0.21720    0.21720    0.28280   1.00
Zn1      0.28280    0.28280    0.28280   1.00
O2       0.27350    0.22650    0.16180   1.00
O2       0.27350    0.16180    0.22650   1.00
O2       0.33820    0.22650    0.22650   1.00
O2       0.22650    0.27350    0.16180   1.00
O2       0.16180    0.27350    0.22650   1.00
O2       0.22650    0.33820    0.22650   1.00
O2       0.22650    0.16180    0.27350   1.00
O2       0.16180    0.22650    0.27350   1.00
O2       0.22650    0.22650    0.33820   1.00
O2       0.33820    0.27350    0.27350   1.00
O2       0.27350    0.33820    0.27350   1.00
O2       0.27350    0.27350    0.33820   1.00
C1       0.25000    0.25000    0.14480   1.00
C1       0.25000    0.14480    0.25000   1.00
C1       0.35520    0.25000    0.25000   1.00
C1       0.14480    0.25000    0.25000   1.00
C1       0.25000    0.35520    0.25000   1.00
C1       0.25000    0.25000    0.35520   1.00
O1       0.75000    0.75000    0.25000   1.00
Zn1      0.78280    0.71720    0.21720   1.00
Zn1      0.71720    0.78280    0.21720   1.00
Zn1      0.71720    0.71720    0.28280   1.00
Zn1      0.78280    0.78280    0.28280   1.00
O2       0.77350    0.72650    0.16180   1.00
O2       0.77350    0.66180    0.22650   1.00
O2       0.83820    0.72650    0.22650   1.00
O2       0.72650    0.77350    0.16180   1.00
O2       0.66180    0.77350    0.22650   1.00
O2       0.72650    0.83820    0.22650   1.00
O2       0.72650    0.66180    0.27350   1.00
O2       0.66180    0.72650    0.27350   1.00
O2       0.72650    0.72650    0.33820   1.00
O2       0.83820    0.77350    0.27350   1.00
O2       0.77350    0.83820    0.27350   1.00
O2       0.77350    0.77350    0.33820   1.00
C1       0.75000    0.75000    0.14480   1.00
C1       0.75000    0.64480    0.25000   1.00
C1       0.85520    0.75000    0.25000   1.00
C1       0.64480    0.75000    0.25000   1.00
C1       0.75000    0.85520    0.25000   1.00
C1       0.75000    0.75000    0.35520   1.00
O1       0.75000    0.25000    0.75000   1.00
Zn1      0.78280    0.21720    0.71720   1.00
Zn1      0.71720    0.28280    0.71720   1.00
Zn1      0.71720    0.21720    0.78280   1.00
Zn1      0.78280    0.28280    0.78280   1.00
O2       0.77350    0.22650    0.66180   1.00
O2       0.77350    0.16180    0.72650   1.00
O2       0.83820    0.22650    0.72650   1.00
O2       0.72650    0.27350    0.66180   1.00
O2       0.66180    0.27350    0.72650   1.00
O2       0.72650    0.33820    0.72650   1.00
O2       0.72650    0.16180    0.77350   1.00
O2       0.66180    0.22650    0.77350   1.00
O2       0.72650    0.22650    0.83820   1.00
O2       0.83820    0.27350    0.77350   1.00
O2       0.77350    0.33820    0.77350   1.00
O2       0.77350    0.27350    0.83820   1.00
C1       0.75000    0.25000    0.64480   1.00
C1       0.75000    0.14480    0.75000   1.00
C1       0.85520    0.25000    0.75000   1.00
C1       0.64480    0.25000    0.75000   1.00
C1       0.75000    0.35520    0.75000   1.00
C1       0.75000    0.25000    0.85520   1.00
O1       0.25000    0.75000    0.75000   1.00
Zn1      0.28280    0.71720    0.71720   1.00
Zn1      0.21720    0.78280    0.71720   1.00
Zn1      0.21720    0.71720    0.78280   1.00
Zn1      0.28280    0.78280    0.78280   1.00
O2       0.27350    0.72650    0.66180   1.00
O2       0.27350    0.66180    0.72650   1.00
O2       0.33820    0.72650    0.72650   1.00
O2       0.22650    0.77350    0.66180   1.00
O2       0.16180    0.77350    0.72650   1.00
O2       0.22650    0.83820    0.72650   1.00
O2       0.22650    0.66180    0.77350   1.00
O2       0.16180    0.72650    0.77350   1.00
O2       0.22650    0.72650    0.83820   1.00
O2       0.33820    0.77350    0.77350   1.00
O2       0.27350    0.83820    0.77350   1.00
O2       0.27350    0.77350    0.83820   1.00
C1       0.25000    0.75000    0.64480   1.00
C1       0.25000    0.64480    0.75000   1.00
C1       0.35520    0.75000    0.75000   1.00
C1       0.14480    0.75000    0.75000   1.00
C1       0.25000    0.85520    0.75000   1.00
C1       0.25000    0.75000    0.85520   1.00
C2       0.75290    0.75072    0.89757   1.00
C3a      0.78644    0.74102    0.91884   1.00
H1       0.81325    0.73376    0.90369   1.00
C3a      0.71820    0.76013    0.91704   1.00
H1       0.69229    0.76762    0.90051   1.00
C3b      0.78567    0.74063    0.95938   1.00
C5       0.82226    0.73007    0.98144   1.00
H2       0.81697    0.70398    0.99984   1.00
H2       0.84700    0.72345    0.96161   1.00
H2       0.83113    0.75461    1.00060   1.00
C3b      0.71668    0.75995    0.95756   1.00
C5       0.67890    0.77021    0.97767   1.00
H2       0.68313    0.79604    0.99670   1.00
H2       0.65532    0.77712    0.95655   1.00
H2       0.66897    0.74542    0.99594   1.00
C4       0.75060    0.75015    0.97873   1.00
C4       0.74940    0.74985    1.02127   1.00
C3b      0.73918    0.71520    1.04101   1.00
C5       0.72937    0.67815    1.01937   1.00
H2       0.75456    0.66888    1.00129   1.00
H2       0.72204    0.65384    1.03949   1.00
H2       0.70395    0.68305    0.99995   1.00
C3b      0.75847    0.78422    1.04204   1.00
C5       0.76947    0.82156    1.02152   1.00
H2       0.74534    0.83110    1.00217   1.00
H2       0.77565    0.84559    1.04235   1.00
H2       0.79595    0.81693    1.00350   1.00
C3a      0.73813    0.71529    1.08155   1.00
H1       0.73031    0.68881    1.09700   1.00
C3a      0.75722    0.78355    1.08257   1.00
H1       0.76414    0.80981    1.09881   1.00
C2       0.74710    0.74928    1.10243   1.00
C2       0.75072    0.89757    0.75290   1.00
C3a      0.74102    0.91884    0.78644   1.00
H1       0.73376    0.90369    0.81325   1.00
C3a      0.76013    0.91704    0.71820   1.00
H1       0.76762    0.90051    0.69229   1.00
C3b      0.74063    0.95938    0.78567   1.00
C5       0.73007    0.98144    0.82226   1.00
H2       0.70398    0.99984    0.81697   1.00
H2       0.72345    0.96161    0.84700   1.00
H2       0.75461    1.00060    0.83113   1.00
C3b      0.75995    0.95756    0.71668   1.00
C5       0.77021    0.97767    0.67890   1.00
H2       0.79604    0.99670    0.68313   1.00
H2       0.77712    0.95655    0.65532   1.00
H2       0.74542    0.99594    0.66897   1.00
C4       0.75015    0.97873    0.75060   1.00
C4       0.74985    1.02127    0.74940   1.00
C3b      0.71520    1.04101    0.73918   1.00
C5       0.67815    1.01937    0.72937   1.00
H2       0.66888    1.00129    0.75456   1.00
H2       0.65384    1.03949    0.72204   1.00
H2       0.68305    0.99995    0.70395   1.00
C3b      0.78422    1.04204    0.75847   1.00
C5       0.82156    1.02152    0.76947   1.00
H2       0.83110    1.00217    0.74534   1.00
H2       0.84559    1.04235    0.77565   1.00
H2       0.81693    1.00350    0.79595   1.00
C3a      0.71529    1.08155    0.73813   1.00
H1       0.68881    1.09700    0.73031   1.00
C3a      0.78355    1.08257    0.75722   1.00
H1       0.80981    1.09881    0.76414   1.00
C2       0.74928    1.10243    0.74710   1.00
C2       0.60243    0.75290    0.74928   1.00
C3a      0.58116    0.78644    0.75898   1.00
H1       0.59631    0.81325    0.76624   1.00
C3a      0.58296    0.71820    0.73987   1.00
H1       0.59949    0.69229    0.73238   1.00
C3b      0.54062    0.78567    0.75937   1.00
C5       0.51856    0.82226    0.76993   1.00
H2       0.50016    0.81697    0.79602   1.00
H2       0.53839    0.84700    0.77655   1.00
H2       0.49940    0.83113    0.74539   1.00
C3b      0.54244    0.71668    0.74005   1.00
C5       0.52233    0.67890    0.72979   1.00
H2       0.50330    0.68313    0.70396   1.00
H2       0.54345    0.65532    0.72288   1.00
H2       0.50406    0.66897    0.75458   1.00
C4       0.52127    0.75060    0.74985   1.00
C4       0.47873    0.74940    0.75015   1.00
C3b      0.45899    0.73918    0.78480   1.00
C5       0.48063    0.72937    0.82185   1.00
H2       0.49871    0.75456    0.83112   1.00
H2       0.46051    0.72204    0.84616   1.00
H2       0.50005    0.70395    0.81695   1.00
C3b      0.45796    0.75847    0.71578   1.00
C5       0.47848    0.76947    0.67844   1.00
H2       0.49783    0.74534    0.66890   1.00
H2       0.45765    0.77565    0.65441   1.00
H2       0.49650    0.79595    0.68307   1.00
C3a      0.41845    0.73813    0.78471   1.00
H1       0.40300    0.73031    0.81119   1.00
C3a      0.41743    0.75722    0.71645   1.00
H1       0.40119    0.76414    0.69019   1.00
C2       0.39757    0.74710    0.75072   1.00
C2       0.89757    0.75290    0.75072   1.00
C3a      0.91884    0.78644    0.74102   1.00
H1       0.90369    0.81325    0.73376   1.00
C3a      0.91704    0.71820    0.76013   1.00
H1       0.90051    0.69229    0.76762   1.00
C3b      0.95938    0.78567    0.74063   1.00
C5       0.98144    0.82226    0.73007   1.00
H2       0.99984    0.81697    0.70398   1.00
H2       0.96161    0.84700    0.72345   1.00
H2       1.00060    0.83113    0.75461   1.00
C3b      0.95756    0.71668    0.75995   1.00
C5       0.97767    0.67890    0.77021   1.00
H2       0.99670    0.68313    0.79604   1.00
H2       0.95655    0.65532    0.77712   1.00
H2       0.99594    0.66897    0.74542   1.00
C4       0.97873    0.75060    0.75015   1.00
C4       1.02127    0.74940    0.74985   1.00
C3b      1.04101    0.73918    0.71520   1.00
C5       1.01937    0.72937    0.67815   1.00
H2       1.00129    0.75456    0.66888   1.00
H2       1.03949    0.72204    0.65384   1.00
H2       0.99995    0.70395    0.68305   1.00
C3b      1.04204    0.75847    0.78422   1.00
C5       1.02152    0.76947    0.82156   1.00
H2       1.00217    0.74534    0.83110   1.00
H2       1.04235    0.77565    0.84559   1.00
H2       1.00350    0.79595    0.81693   1.00
C3a      1.08155    0.73813    0.71529   1.00
H1       1.09700    0.73031    0.68881   1.00
C3a      1.08257    0.75722    0.78355   1.00
H1       1.09881    0.76414    0.80981   1.00
C2       1.10243    0.74710    0.74928   1.00
C2       0.74928    0.60243    0.75290   1.00
C3a      0.75898    0.58116    0.78644   1.00
H1       0.76624    0.59631    0.81325   1.00
C3a      0.73987    0.58296    0.71820   1.00
H1       0.73238    0.59949    0.69229   1.00
C3b      0.75937    0.54062    0.78567   1.00
C5       0.76993    0.51856    0.82226   1.00
H2       0.79602    0.50016    0.81697   1.00
H2       0.77655    0.53839    0.84700   1.00
H2       0.74539    0.49940    0.83113   1.00
C3b      0.74005    0.54244    0.71668   1.00
C5       0.72979    0.52233    0.67890   1.00
H2       0.70396    0.50330    0.68313   1.00
H2       0.72288    0.54345    0.65532   1.00
H2       0.75458    0.50406    0.66897   1.00
C4       0.74985    0.52127    0.75060   1.00
C4       0.75015    0.47873    0.74940   1.00
C3b      0.78480    0.45899    0.73918   1.00
C5       0.82185    0.48063    0.72937   1.00
H2       0.83112    0.49871    0.75456   1.00
H2       0.84616    0.46051    0.72204   1.00
H2       0.81695    0.50005    0.70395   1.00
C3b      0.71578    0.45796    0.75847   1.00
C5       0.67844    0.47848    0.76947   1.00
H2       0.66890    0.49783    0.74534   1.00
H2       0.65441    0.45765    0.77565   1.00
H2       0.68307    0.49650    0.79595   1.00
C3a      0.78471    0.41845    0.73813   1.00
H1       0.81119    0.40300    0.73031   1.00
C3a      0.71645    0.41743    0.75722   1.00
H1       0.69019    0.40119    0.76414   1.00
C2       0.75072    0.39757    0.74710   1.00
C2       0.75290    0.74928    0.60243   1.00
C3a      0.78644    0.75898    0.58116   1.00
H1       0.81325    0.76624    0.59631   1.00
C3a      0.71820    0.73987    0.58296   1.00
H1       0.69229    0.73238    0.59949   1.00
C3b      0.78567    0.75937    0.54062   1.00
C5       0.82226    0.76993    0.51856   1.00
H2       0.81697    0.79602    0.50016   1.00
H2       0.84700    0.77655    0.53839   1.00
H2       0.83113    0.74539    0.49940   1.00
C3b      0.71668    0.74005    0.54244   1.00
C5       0.67890    0.72979    0.52233   1.00
H2       0.68313    0.70396    0.50330   1.00
H2       0.65532    0.72288    0.54345   1.00
H2       0.66897    0.75458    0.50406   1.00
C4       0.75060    0.74985    0.52127   1.00
C4       0.74940    0.75015    0.47873   1.00
C3b      0.73918    0.78480    0.45899   1.00
C5       0.72937    0.82185    0.48063   1.00
H2       0.75456    0.83112    0.49871   1.00
H2       0.72204    0.84616    0.46051   1.00
H2       0.70395    0.81695    0.50005   1.00
C3b      0.75847    0.71578    0.45796   1.00
C5       0.76947    0.67844    0.47848   1.00
H2       0.74534    0.66890    0.49783   1.00
H2       0.77565    0.65441    0.45765   1.00
H2       0.79595    0.68307    0.49650   1.00
C3a      0.73813    0.78471    0.41845   1.00
H1       0.73031    0.81119    0.40300   1.00
C3a      0.75722    0.71645    0.41743   1.00
H1       0.76414    0.69019    0.40119   1.00
C2       0.74710    0.75072    0.39757   1.00
C2       0.25290    0.25072    0.89757   1.00
C3a      0.28644    0.24102    0.91884   1.00
H1       0.31325    0.23376    0.90369   1.00
C3a      0.21820    0.26013    0.91704   1.00
H1       0.19229    0.26762    0.90051   1.00
C3b      0.28567    0.24063    0.95938   1.00
C5       0.32226    0.23007    0.98144   1.00
H2       0.31697    0.20398    0.99984   1.00
H2       0.34700    0.22345    0.96161   1.00
H2       0.33113    0.25461    1.00060   1.00
C3b      0.21668    0.25995    0.95756   1.00
C5       0.17890    0.27021    0.97767   1.00
H2       0.18313    0.29604    0.99670   1.00
H2       0.15532    0.27712    0.95655   1.00
H2       0.16897    0.24542    0.99594   1.00
C4       0.25060    0.25015    0.97873   1.00
C4       0.24940    0.24985    1.02127   1.00
C3b      0.23918    0.21520    1.04101   1.00
C5       0.22937    0.17815    1.01937   1.00
H2       0.25456    0.16888    1.00129   1.00
H2       0.22204    0.15384    1.03949   1.00
H2       0.20395    0.18305    0.99995   1.00
C3b      0.25847    0.28422    1.04204   1.00
C5       0.26947    0.32156    1.02152   1.00
H2       0.24534    0.33110    1.00217   1.00
H2       0.27565    0.34559    1.04235   1.00
H2       0.29595    0.31693    1.00350   1.00
C3a      0.23813    0.21529    1.08155   1.00
H1       0.23031    0.18881    1.09700   1.00
C3a      0.25722    0.28355    1.08257   1.00
H1       0.26414    0.30981    1.09881   1.00
C2       0.24710    0.24928    1.10243   1.00
C2       0.25072    0.39757    0.75290   1.00
C3a      0.24102    0.41884    0.78644   1.00
H1       0.23376    0.40369    0.81325   1.00
C3a      0.26013    0.41704    0.71820   1.00
H1       0.26762    0.40051    0.69229   1.00
C3b      0.24063    0.45938    0.78567   1.00
C5       0.23007    0.48144    0.82226   1.00
H2       0.20398    0.49984    0.81697   1.00
H2       0.22345    0.46161    0.84700   1.00
H2       0.25461    0.50060    0.83113   1.00
C3b      0.25995    0.45756    0.71668   1.00
C5       0.27021    0.47767    0.67890   1.00
H2       0.29604    0.49670    0.68313   1.00
H2       0.27712    0.45655    0.65532   1.00
H2       0.24542    0.49594    0.66897   1.00
C4       0.25015    0.47873    0.75060   1.00
C4       0.24985    0.52127    0.74940   1.00
C3b      0.21520    0.54101    0.73918   1.00
C5       0.17815    0.51937    0.72937   1.00
H2       0.16888    0.50129    0.75456   1.00
H2       0.15384    0.53949    0.72204   1.00
H2       0.18305    0.49995    0.70395   1.00
C3b      0.28422    0.54204    0.75847   1.00
C5       0.32156    0.52152    0.76947   1.00
H2       0.33110    0.50217    0.74534   1.00
H2       0.34559    0.54235    0.77565   1.00
H2       0.31693    0.50350    0.79595   1.00
C3a      0.21529    0.58155    0.73813   1.00
H1       0.18881    0.59700    0.73031   1.00
C3a      0.28355    0.58257    0.75722   1.00
H1       0.30981    0.59881    0.76414   1.00
C2       0.24928    0.60243    0.74710   1.00
C2       0.10243    0.25290    0.74928   1.00
C3a      0.08116    0.28644    0.75898   1.00
H1       0.09631    0.31325    0.76624   1.00
C3a      0.08296    0.21820    0.73987   1.00
H1       0.09949    0.19229    0.73238   1.00
C3b      0.04062    0.28567    0.75937   1.00
C5       0.01856    0.32226    0.76993   1.00
H2       0.00016    0.31697    0.79602   1.00
H2       0.03839    0.34700    0.77655   1.00
H2       -0.00060   0.33113    0.74539   1.00
C3b      0.04244    0.21668    0.74005   1.00
C5       0.02233    0.17890    0.72979   1.00
H2       0.00330    0.18313    0.70396   1.00
H2       0.04345    0.15532    0.72288   1.00
H2       0.00406    0.16897    0.75458   1.00
C4       0.02127    0.25060    0.74985   1.00
C4       -0.02127   0.24940    0.75015   1.00
C3b      -0.04101   0.23918    0.78480   1.00
C5       -0.01937   0.22937    0.82185   1.00
H2       -0.00129   0.25456    0.83112   1.00
H2       -0.03949   0.22204    0.84616   1.00
H2       0.00005    0.20395    0.81695   1.00
C3b      -0.04204   0.25847    0.71578   1.00
C5       -0.02152   0.26947    0.67844   1.00
H2       -0.00217   0.24534    0.66890   1.00
H2       -0.04235   0.27565    0.65441   1.00
H2       -0.00350   0.29595    0.68307   1.00
C3a      -0.08155   0.23813    0.78471   1.00
H1       -0.09700   0.23031    0.81119   1.00
C3a      -0.08257   0.25722    0.71645   1.00
H1       -0.09881   0.26414    0.69019   1.00
C2       -0.10243   0.24710    0.75072   1.00
C2       0.39757    0.25290    0.75072   1.00
C3a      0.41884    0.28644    0.74102   1.00
H1       0.40369    0.31325    0.73376   1.00
C3a      0.41704    0.21820    0.76013   1.00
H1       0.40051    0.19229    0.76762   1.00
C3b      0.45938    0.28567    0.74063   1.00
C5       0.48144    0.32226    0.73007   1.00
H2       0.49984    0.31697    0.70398   1.00
H2       0.46161    0.34700    0.72345   1.00
H2       0.50060    0.33113    0.75461   1.00
C3b      0.45756    0.21668    0.75995   1.00
C5       0.47767    0.17890    0.77021   1.00
H2       0.49670    0.18313    0.79604   1.00
H2       0.45655    0.15532    0.77712   1.00
H2       0.49594    0.16897    0.74542   1.00
C4       0.47873    0.25060    0.75015   1.00
C4       0.52127    0.24940    0.74985   1.00
C3b      0.54101    0.23918    0.71520   1.00
C5       0.51937    0.22937    0.67815   1.00
H2       0.50129    0.25456    0.66888   1.00
H2       0.53949    0.22204    0.65384   1.00
H2       0.49995    0.20395    0.68305   1.00
C3b      0.54204    0.25847    0.78422   1.00
C5       0.52152    0.26947    0.82156   1.00
H2       0.50217    0.24534    0.83110   1.00
H2       0.54235    0.27565    0.84559   1.00
H2       0.50350    0.29595    0.81693   1.00
C3a      0.58155    0.23813    0.71529   1.00
H1       0.59700    0.23031    0.68881   1.00
C3a      0.58257    0.25722    0.78355   1.00
H1       0.59881    0.26414    0.80981   1.00
C2       0.60243    0.24710    0.74928   1.00
C2       0.24928    0.10243    0.75290   1.00
C3a      0.25898    0.08116    0.78644   1.00
H1       0.26624    0.09631    0.81325   1.00
C3a      0.23987    0.08296    0.71820   1.00
H1       0.23238    0.09949    0.69229   1.00
C3b      0.25937    0.04062    0.78567   1.00
C5       0.26993    0.01856    0.82226   1.00
H2       0.29602    0.00016    0.81697   1.00
H2       0.27655    0.03839    0.84700   1.00
H2       0.24539    -0.00060   0.83113   1.00
C3b      0.24005    0.04244    0.71668   1.00
C5       0.22979    0.02233    0.67890   1.00
H2       0.20396    0.00330    0.68313   1.00
H2       0.22288    0.04345    0.65532   1.00
H2       0.25458    0.00406    0.66897   1.00
C4       0.24985    0.02127    0.75060   1.00
C4       0.25015    -0.02127   0.74940   1.00
C3b      0.28480    -0.04101   0.73918   1.00
C5       0.32185    -0.01937   0.72937   1.00
H2       0.33112    -0.00129   0.75456   1.00
H2       0.34616    -0.03949   0.72204   1.00
H2       0.31695    0.00005    0.70395   1.00
C3b      0.21578    -0.04204   0.75847   1.00
C5       0.17844    -0.02152   0.76947   1.00
H2       0.16890    -0.00217   0.74534   1.00
H2       0.15441    -0.04235   0.77565   1.00
H2       0.18307    -0.00350   0.79595   1.00
C3a      0.28471    -0.08155   0.73813   1.00
H1       0.31119    -0.09700   0.73031   1.00
C3a      0.21645    -0.08257   0.75722   1.00
H1       0.19019    -0.09881   0.76414   1.00
C2       0.25072    -0.10243   0.74710   1.00
C2       0.25290    0.24928    0.60243   1.00
C3a      0.28644    0.25898    0.58116   1.00
H1       0.31325    0.26624    0.59631   1.00
C3a      0.21820    0.23987    0.58296   1.00
H1       0.19229    0.23238    0.59949   1.00
C3b      0.28567    0.25937    0.54062   1.00
C5       0.32226    0.26993    0.51856   1.00
H2       0.31697    0.29602    0.50016   1.00
H2       0.34700    0.27655    0.53839   1.00
H2       0.33113    0.24539    0.49940   1.00
C3b      0.21668    0.24005    0.54244   1.00
C5       0.17890    0.22979    0.52233   1.00
H2       0.18313    0.20396    0.50330   1.00
H2       0.15532    0.22288    0.54345   1.00
H2       0.16897    0.25458    0.50406   1.00
C4       0.25060    0.24985    0.52127   1.00
C4       0.24940    0.25015    0.47873   1.00
C3b      0.23918    0.28480    0.45899   1.00
C5       0.22937    0.32185    0.48063   1.00
H2       0.25456    0.33112    0.49871   1.00
H2       0.22204    0.34616    0.46051   1.00
H2       0.20395    0.31695    0.50005   1.00
C3b      0.25847    0.21578    0.45796   1.00
C5       0.26947    0.17844    0.47848   1.00
H2       0.24534    0.16890    0.49783   1.00
H2       0.27565    0.15441    0.45765   1.00
H2       0.29595    0.18307    0.49650   1.00
C3a      0.23813    0.28471    0.41845   1.00
H1       0.23031    0.31119    0.40300   1.00
C3a      0.25722    0.21645    0.41743   1.00
H1       0.26414    0.19019    0.40119   1.00
C2       0.24710    0.25072    0.39757   1.00
C2       0.25290    0.75072    0.39757   1.00
C3a      0.28644    0.74102    0.41884   1.00
H1       0.31325    0.73376    0.40369   1.00
C3a      0.21820    0.76013    0.41704   1.00
H1       0.19229    0.76762    0.40051   1.00
C3b      0.28567    0.74063    0.45938   1.00
C5       0.32226    0.73007    0.48144   1.00
H2       0.31697    0.70398    0.49984   1.00
H2       0.34700    0.72345    0.46161   1.00
H2       0.33113    0.75461    0.50060   1.00
C3b      0.21668    0.75995    0.45756   1.00
C5       0.17890    0.77021    0.47767   1.00
H2       0.18313    0.79604    0.49670   1.00
H2       0.15532    0.77712    0.45655   1.00
H2       0.16897    0.74542    0.49594   1.00
C4       0.25060    0.75015    0.47873   1.00
C4       0.24940    0.74985    0.52127   1.00
C3b      0.23918    0.71520    0.54101   1.00
C5       0.22937    0.67815    0.51937   1.00
H2       0.25456    0.66888    0.50129   1.00
H2       0.22204    0.65384    0.53949   1.00
H2       0.20395    0.68305    0.49995   1.00
C3b      0.25847    0.78422    0.54204   1.00
C5       0.26947    0.82156    0.52152   1.00
H2       0.24534    0.83110    0.50217   1.00
H2       0.27565    0.84559    0.54235   1.00
H2       0.29595    0.81693    0.50350   1.00
C3a      0.23813    0.71529    0.58155   1.00
H1       0.23031    0.68881    0.59700   1.00
C3a      0.25722    0.78355    0.58257   1.00
H1       0.26414    0.80981    0.59881   1.00
C2       0.24710    0.74928    0.60243   1.00
C2       0.25072    0.89757    0.25290   1.00
C3a      0.24102    0.91884    0.28644   1.00
H1       0.23376    0.90369    0.31325   1.00
C3a      0.26013    0.91704    0.21820   1.00
H1       0.26762    0.90051    0.19229   1.00
C3b      0.24063    0.95938    0.28567   1.00
C5       0.23007    0.98144    0.32226   1.00
H2       0.20398    0.99984    0.31697   1.00
H2       0.22345    0.96161    0.34700   1.00
H2       0.25461    1.00060    0.33113   1.00
C3b      0.25995    0.95756    0.21668   1.00
C5       0.27021    0.97767    0.17890   1.00
H2       0.29604    0.99670    0.18313   1.00
H2       0.27712    0.95655    0.15532   1.00
H2       0.24542    0.99594    0.16897   1.00
C4       0.25015    0.97873    0.25060   1.00
C4       0.24985    1.02127    0.24940   1.00
C3b      0.21520    1.04101    0.23918   1.00
C5       0.17815    1.01937    0.22937   1.00
H2       0.16888    1.00129    0.25456   1.00
H2       0.15384    1.03949    0.22204   1.00
H2       0.18305    0.99995    0.20395   1.00
C3b      0.28422    1.04204    0.25847   1.00
C5       0.32156    1.02152    0.26947   1.00
H2       0.33110    1.00217    0.24534   1.00
H2       0.34559    1.04235    0.27565   1.00
H2       0.31693    1.00350    0.29595   1.00
C3a      0.21529    1.08155    0.23813   1.00
H1       0.18881    1.09700    0.23031   1.00
C3a      0.28355    1.08257    0.25722   1.00
H1       0.30981    1.09881    0.26414   1.00
C2       0.24928    1.10243    0.24710   1.00
C2       0.10243    0.75290    0.24928   1.00
C3a      0.08116    0.78644    0.25898   1.00
H1       0.09631    0.81325    0.26624   1.00
C3a      0.08296    0.71820    0.23987   1.00
H1       0.09949    0.69229    0.23238   1.00
C3b      0.04062    0.78567    0.25937   1.00
C5       0.01856    0.82226    0.26993   1.00
H2       0.00016    0.81697    0.29602   1.00
H2       0.03839    0.84700    0.27655   1.00
H2       -0.00060   0.83113    0.24539   1.00
C3b      0.04244    0.71668    0.24005   1.00
C5       0.02233    0.67890    0.22979   1.00
H2       0.00330    0.68313    0.20396   1.00
H2       0.04345    0.65532    0.22288   1.00
H2       0.00406    0.66897    0.25458   1.00
C4       0.02127    0.75060    0.24985   1.00
C4       -0.02127   0.74940    0.25015   1.00
C3b      -0.04101   0.73918    0.28480   1.00
C5       -0.01937   0.72937    0.32185   1.00
H2       -0.00129   0.75456    0.33112   1.00
H2       -0.03949   0.72204    0.34616   1.00
H2       0.00005    0.70395    0.31695   1.00
C3b      -0.04204   0.75847    0.21578   1.00
C5       -0.02152   0.76947    0.17844   1.00
H2       -0.00217   0.74534    0.16890   1.00
H2       -0.04235   0.77565    0.15441   1.00
H2       -0.00350   0.79595    0.18307   1.00
C3a      -0.08155   0.73813    0.28471   1.00
H1       -0.09700   0.73031    0.31119   1.00
C3a      -0.08257   0.75722    0.21645   1.00
H1       -0.09881   0.76414    0.19019   1.00
C2       -0.10243   0.74710    0.25072   1.00
C2       0.39757    0.75290    0.25072   1.00
C3a      0.41884    0.78644    0.24102   1.00
H1       0.40369    0.81325    0.23376   1.00
C3a      0.41704    0.71820    0.26013   1.00
H1       0.40051    0.69229    0.26762   1.00
C3b      0.45938    0.78567    0.24063   1.00
C5       0.48144    0.82226    0.23007   1.00
H2       0.49984    0.81697    0.20398   1.00
H2       0.46161    0.84700    0.22345   1.00
H2       0.50060    0.83113    0.25461   1.00
C3b      0.45756    0.71668    0.25995   1.00
C5       0.47767    0.67890    0.27021   1.00
H2       0.49670    0.68313    0.29604   1.00
H2       0.45655    0.65532    0.27712   1.00
H2       0.49594    0.66897    0.24542   1.00
C4       0.47873    0.75060    0.25015   1.00
C4       0.52127    0.74940    0.24985   1.00
C3b      0.54101    0.73918    0.21520   1.00
C5       0.51937    0.72937    0.17815   1.00
H2       0.50129    0.75456    0.16888   1.00
H2       0.53949    0.72204    0.15384   1.00
H2       0.49995    0.70395    0.18305   1.00
C3b      0.54204    0.75847    0.28422   1.00
C5       0.52152    0.76947    0.32156   1.00
H2       0.50217    0.74534    0.33110   1.00
H2       0.54235    0.77565    0.34559   1.00
H2       0.50350    0.79595    0.31693   1.00
C3a      0.58155    0.73813    0.21529   1.00
H1       0.59700    0.73031    0.18881   1.00
C3a      0.58257    0.75722    0.28355   1.00
H1       0.59881    0.76414    0.30981   1.00
C2       0.60243    0.74710    0.24928   1.00
C2       0.24928    0.60243    0.25290   1.00
C3a      0.25898    0.58116    0.28644   1.00
H1       0.26624    0.59631    0.31325   1.00
C3a      0.23987    0.58296    0.21820   1.00
H1       0.23238    0.59949    0.19229   1.00
C3b      0.25937    0.54062    0.28567   1.00
C5       0.26993    0.51856    0.32226   1.00
H2       0.29602    0.50016    0.31697   1.00
H2       0.27655    0.53839    0.34700   1.00
H2       0.24539    0.49940    0.33113   1.00
C3b      0.24005    0.54244    0.21668   1.00
C5       0.22979    0.52233    0.17890   1.00
H2       0.20396    0.50330    0.18313   1.00
H2       0.22288    0.54345    0.15532   1.00
H2       0.25458    0.50406    0.16897   1.00
C4       0.24985    0.52127    0.25060   1.00
C4       0.25015    0.47873    0.24940   1.00
C3b      0.28480    0.45899    0.23918   1.00
C5       0.32185    0.48063    0.22937   1.00
H2       0.33112    0.49871    0.25456   1.00
H2       0.34616    0.46051    0.22204   1.00
H2       0.31695    0.50005    0.20395   1.00
C3b      0.21578    0.45796    0.25847   1.00
C5       0.17844    0.47848    0.26947   1.00
H2       0.16890    0.49783    0.24534   1.00
H2       0.15441    0.45765    0.27565   1.00
H2       0.18307    0.49650    0.29595   1.00
C3a      0.28471    0.41845    0.23813   1.00
H1       0.31119    0.40300    0.23031   1.00
C3a      0.21645    0.41743    0.25722   1.00
H1       0.19019    0.40119    0.26414   1.00
C2       0.25072    0.39757    0.24710   1.00
C2       0.25290    0.74928    0.10243   1.00
C3a      0.28644    0.75898    0.08116   1.00
H1       0.31325    0.76624    0.09631   1.00
C3a      0.21820    0.73987    0.08296   1.00
H1       0.19229    0.73238    0.09949   1.00
C3b      0.28567    0.75937    0.04062   1.00
C5       0.32226    0.76993    0.01856   1.00
H2       0.31697    0.79602    0.00016   1.00
H2       0.34700    0.77655    0.03839   1.00
H2       0.33113    0.74539    -0.00060   1.00
C3b      0.21668    0.74005    0.04244   1.00
C5       0.17890    0.72979    0.02233   1.00
H2       0.18313    0.70396    0.00330   1.00
H2       0.15532    0.72288    0.04345   1.00
H2       0.16897    0.75458    0.00406   1.00
C4       0.25060    0.74985    0.02127   1.00
C4       0.24940    0.75015    -0.02127   1.00
C3b      0.23918    0.78480    -0.04101   1.00
C5       0.22937    0.82185    -0.01937   1.00
H2       0.25456    0.83112    -0.00129   1.00
H2       0.22204    0.84616    -0.03949   1.00
H2       0.20395    0.81695    0.00005   1.00
C3b      0.25847    0.71578    -0.04204   1.00
C5       0.26947    0.67844    -0.02152   1.00
H2       0.24534    0.66890    -0.00217   1.00
H2       0.27565    0.65441    -0.04235   1.00
H2       0.29595    0.68307    -0.00350   1.00
C3a      0.23813    0.78471    -0.08155   1.00
H1       0.23031    0.81119    -0.09700   1.00
C3a      0.25722    0.71645    -0.08257   1.00
H1       0.26414    0.69019    -0.09881   1.00
C2       0.24710    0.75072    -0.10243   1.00
C2       0.75290    0.25072    0.39757   1.00
C3a      0.78644    0.24102    0.41884   1.00
H1       0.81325    0.23376    0.40369   1.00
C3a      0.71820    0.26013    0.41704   1.00
H1       0.69229    0.26762    0.40051   1.00
C3b      0.78567    0.24063    0.45938   1.00
C5       0.82226    0.23007    0.48144   1.00
H2       0.81697    0.20398    0.49984   1.00
H2       0.84700    0.22345    0.46161   1.00
H2       0.83113    0.25461    0.50060   1.00
C3b      0.71668    0.25995    0.45756   1.00
C5       0.67890    0.27021    0.47767   1.00
H2       0.68313    0.29604    0.49670   1.00
H2       0.65532    0.27712    0.45655   1.00
H2       0.66897    0.24542    0.49594   1.00
C4       0.75060    0.25015    0.47873   1.00
C4       0.74940    0.24985    0.52127   1.00
C3b      0.73918    0.21520    0.54101   1.00
C5       0.72937    0.17815    0.51937   1.00
H2       0.75456    0.16888    0.50129   1.00
H2       0.72204    0.15384    0.53949   1.00
H2       0.70395    0.18305    0.49995   1.00
C3b      0.75847    0.28422    0.54204   1.00
C5       0.76947    0.32156    0.52152   1.00
H2       0.74534    0.33110    0.50217   1.00
H2       0.77565    0.34559    0.54235   1.00
H2       0.79595    0.31693    0.50350   1.00
C3a      0.73813    0.21529    0.58155   1.00
H1       0.73031    0.18881    0.59700   1.00
C3a      0.75722    0.28355    0.58257   1.00
H1       0.76414    0.30981    0.59881   1.00
C2       0.74710    0.24928    0.60243   1.00
C2       0.75072    0.39757    0.25290   1.00
C3a      0.74102    0.41884    0.28644   1.00
H1       0.73376    0.40369    0.31325   1.00
C3a      0.76013    0.41704    0.21820   1.00
H1       0.76762    0.40051    0.19229   1.00
C3b      0.74063    0.45938    0.28567   1.00
C5       0.73007    0.48144    0.32226   1.00
H2       0.70398    0.49984    0.31697   1.00
H2       0.72345    0.46161    0.34700   1.00
H2       0.75461    0.50060    0.33113   1.00
C3b      0.75995    0.45756    0.21668   1.00
C5       0.77021    0.47767    0.17890   1.00
H2       0.79604    0.49670    0.18313   1.00
H2       0.77712    0.45655    0.15532   1.00
H2       0.74542    0.49594    0.16897   1.00
C4       0.75015    0.47873    0.25060   1.00
C4       0.74985    0.52127    0.24940   1.00
C3b      0.71520    0.54101    0.23918   1.00
C5       0.67815    0.51937    0.22937   1.00
H2       0.66888    0.50129    0.25456   1.00
H2       0.65384    0.53949    0.22204   1.00
H2       0.68305    0.49995    0.20395   1.00
C3b      0.78422    0.54204    0.25847   1.00
C5       0.82156    0.52152    0.26947   1.00
H2       0.83110    0.50217    0.24534   1.00
H2       0.84559    0.54235    0.27565   1.00
H2       0.81693    0.50350    0.29595   1.00
C3a      0.71529    0.58155    0.23813   1.00
H1       0.68881    0.59700    0.23031   1.00
C3a      0.78355    0.58257    0.25722   1.00
H1       0.80981    0.59881    0.26414   1.00
C2       0.74928    0.60243    0.24710   1.00
C2       0.60243    0.25290    0.24928   1.00
C3a      0.58116    0.28644    0.25898   1.00
H1       0.59631    0.31325    0.26624   1.00
C3a      0.58296    0.21820    0.23987   1.00
H1       0.59949    0.19229    0.23238   1.00
C3b      0.54062    0.28567    0.25937   1.00
C5       0.51856    0.32226    0.26993   1.00
H2       0.50016    0.31697    0.29602   1.00
H2       0.53839    0.34700    0.27655   1.00
H2       0.49940    0.33113    0.24539   1.00
C3b      0.54244    0.21668    0.24005   1.00
C5       0.52233    0.17890    0.22979   1.00
H2       0.50330    0.18313    0.20396   1.00
H2       0.54345    0.15532    0.22288   1.00
H2       0.50406    0.16897    0.25458   1.00
C4       0.52127    0.25060    0.24985   1.00
C4       0.47873    0.24940    0.25015   1.00
C3b      0.45899    0.23918    0.28480   1.00
C5       0.48063    0.22937    0.32185   1.00
H2       0.49871    0.25456    0.33112   1.00
H2       0.46051    0.22204    0.34616   1.00
H2       0.50005    0.20395    0.31695   1.00
C3b      0.45796    0.25847    0.21578   1.00
C5       0.47848    0.26947    0.17844   1.00
H2       0.49783    0.24534    0.16890   1.00
H2       0.45765    0.27565    0.15441   1.00
H2       0.49650    0.29595    0.18307   1.00
C3a      0.41845    0.23813    0.28471   1.00
H1       0.40300    0.23031    0.31119   1.00
C3a      0.41743    0.25722    0.21645   1.00
H1       0.40119    0.26414    0.19019   1.00
C2       0.39757    0.24710    0.25072   1.00
C2       0.89757    0.25290    0.25072   1.00
C3a      0.91884    0.28644    0.24102   1.00
H1       0.90369    0.31325    0.23376   1.00
C3a      0.91704    0.21820    0.26013   1.00
H1       0.90051    0.19229    0.26762   1.00
C3b      0.95938    0.28567    0.24063   1.00
C5       0.98144    0.32226    0.23007   1.00
H2       0.99984    0.31697    0.20398   1.00
H2       0.96161    0.34700    0.22345   1.00
H2       1.00060    0.33113    0.25461   1.00
C3b      0.95756    0.21668    0.25995   1.00
C5       0.97767    0.17890    0.27021   1.00
H2       0.99670    0.18313    0.29604   1.00
H2       0.95655    0.15532    0.27712   1.00
H2       0.99594    0.16897    0.24542   1.00
C4       0.97873    0.25060    0.25015   1.00
C4       1.02127    0.24940    0.24985   1.00
C3b      1.04101    0.23918    0.21520   1.00
C5       1.01937    0.22937    0.17815   1.00
H2       1.00129    0.25456    0.16888   1.00
H2       1.03949    0.22204    0.15384   1.00
H2       0.99995    0.20395    0.18305   1.00
C3b      1.04204    0.25847    0.28422   1.00
C5       1.02152    0.26947    0.32156   1.00
H2       1.00217    0.24534    0.33110   1.00
H2       1.04235    0.27565    0.34559   1.00
H2       1.00350    0.29595    0.31693   1.00
C3a      1.08155    0.23813    0.21529   1.00
H1       1.09700    0.23031    0.18881   1.00
C3a      1.08257    0.25722    0.28355   1.00
H1       1.09881    0.26414    0.30981   1.00
C2       1.10243    0.24710    0.24928   1.00
C2       0.74928    0.10243    0.25290   1.00
C3a      0.75898    0.08116    0.28644   1.00
H1       0.76624    0.09631    0.31325   1.00
C3a      0.73987    0.08296    0.21820   1.00
H1       0.73238    0.09949    0.19229   1.00
C3b      0.75937    0.04062    0.28567   1.00
C5       0.76993    0.01856    0.32226   1.00
H2       0.79602    0.00016    0.31697   1.00
H2       0.77655    0.03839    0.34700   1.00
H2       0.74539    -0.00060   0.33113   1.00
C3b      0.74005    0.04244    0.21668   1.00
C5       0.72979    0.02233    0.17890   1.00
H2       0.70396    0.00330    0.18313   1.00
H2       0.72288    0.04345    0.15532   1.00
H2       0.75458    0.00406    0.16897   1.00
C4       0.74985    0.02127    0.25060   1.00
C4       0.75015    -0.02127   0.24940   1.00
C3b      0.78480    -0.04101   0.23918   1.00
C5       0.82185    -0.01937   0.22937   1.00
H2       0.83112    -0.00129   0.25456   1.00
H2       0.84616    -0.03949   0.22204   1.00
H2       0.81695    0.00005    0.20395   1.00
C3b      0.71578    -0.04204   0.25847   1.00
C5       0.67844    -0.02152   0.26947   1.00
H2       0.66890    -0.00217   0.24534   1.00
H2       0.65441    -0.04235   0.27565   1.00
H2       0.68307    -0.00350   0.29595   1.00
C3a      0.78471    -0.08155   0.23813   1.00
H1       0.81119    -0.09700   0.23031   1.00
C3a      0.71645    -0.08257   0.25722   1.00
H1       0.69019    -0.09881   0.26414   1.00
C2       0.75072    -0.10243   0.24710   1.00
C2       0.75290    0.24928    0.10243   1.00
C3a      0.78644    0.25898    0.08116   1.00
H1       0.81325    0.26624    0.09631   1.00
C3a      0.71820    0.23987    0.08296   1.00
H1       0.69229    0.23238    0.09949   1.00
C3b      0.78567    0.25937    0.04062   1.00
C5       0.82226    0.26993    0.01856   1.00
H2       0.81697    0.29602    0.00016   1.00
H2       0.84700    0.27655    0.03839   1.00
H2       0.83113    0.24539    -0.00060   1.00
C3b      0.71668    0.24005    0.04244   1.00
C5       0.67890    0.22979    0.02233   1.00
H2       0.68313    0.20396    0.00330   1.00
H2       0.65532    0.22288    0.04345   1.00
H2       0.66897    0.25458    0.00406   1.00
C4       0.75060    0.24985    0.02127   1.00
C4       0.74940    0.25015    -0.02127   1.00
C3b      0.73918    0.28480    -0.04101   1.00
C5       0.72937    0.32185    -0.01937   1.00
H2       0.75456    0.33112    -0.00129   1.00
H2       0.72204    0.34616    -0.03949   1.00
H2       0.70395    0.31695    0.00005   1.00
C3b      0.75847    0.21578    -0.04204   1.00
C5       0.76947    0.17844    -0.02152   1.00
H2       0.74534    0.16890    -0.00217   1.00
H2       0.77565    0.15441    -0.04235   1.00
H2       0.79595    0.18307    -0.00350   1.00
C3a      0.73813    0.28471    -0.08155   1.00
H1       0.73031    0.31119    -0.09700   1.00
C3a      0.75722    0.21645    -0.08257   1.00
H1       0.76414    0.19019    -0.09881   1.00
C2       0.74710    0.25072    -0.10243   1.00
