data_IRMOF10_SG202_Ligand5_label_c.

_audit_creation_method             'generated by an auxiliary program of Tobunporous'

_symmetry_space_group_name_H-M     'P 1'
_symmetry_Int_Tables_number        1
_symmetry_cell_setting             triclinic

_cell_length_a                    34.2800
_cell_length_b                    34.2800
_cell_length_c                    34.2800
_cell_angle_alpha                 90.0000
_cell_angle_beta                  90.0000
_cell_angle_gamma                 90.0000

loop_
_atom_site_label
_atom_site_fract_x
_atom_site_fract_y
_atom_site_fract_z
_atom_site_occupancy
O1       0.75000    0.75000    0.75000   1.00
Zn1      0.71720    0.78280    0.78280   1.00
Zn1      0.78280    0.71720    0.78280   1.00
Zn1      0.78280    0.78280    0.71720   1.00
Zn1      0.71720    0.71720    0.71720   1.00
O2       0.72650    0.77350    0.83820   1.00
O2       0.72650    0.83820    0.77350   1.00
O2       0.66180    0.77350    0.77350   1.00
O2       0.77350    0.72650    0.83820   1.00
O2       0.83820    0.72650    0.77350   1.00
O2       0.77350    0.66180    0.77350   1.00
O2       0.77350    0.83820    0.72650   1.00
O2       0.83820    0.77350    0.72650   1.00
O2       0.77350    0.77350    0.66180   1.00
O2       0.66180    0.72650    0.72650   1.00
O2       0.72650    0.66180    0.72650   1.00
O2       0.72650    0.72650    0.66180   1.00
C1       0.75000    0.75000    0.85520   1.00
C1       0.75000    0.85520    0.75000   1.00
C1       0.64480    0.75000    0.75000   1.00
C1       0.85520    0.75000    0.75000   1.00
C1       0.75000    0.64480    0.75000   1.00
C1       0.75000    0.75000    0.64480   1.00
O1       0.25000    0.25000    0.75000   1.00
Zn1      0.21720    0.28280    0.78280   1.00
Zn1      0.28280    0.21720    0.78280   1.00
Zn1      0.28280    0.28280    0.71720   1.00
Zn1      0.21720    0.21720    0.71720   1.00
O2       0.22650    0.27350    0.83820   1.00
O2       0.22650    0.33820    0.77350   1.00
O2       0.16180    0.27350    0.77350   1.00
O2       0.27350    0.22650    0.83820   1.00
O2       0.33820    0.22650    0.77350   1.00
O2       0.27350    0.16180    0.77350   1.00
O2       0.27350    0.33820    0.72650   1.00
O2       0.33820    0.27350    0.72650   1.00
O2       0.27350    0.27350    0.66180   1.00
O2       0.16180    0.22650    0.72650   1.00
O2       0.22650    0.16180    0.72650   1.00
O2       0.22650    0.22650    0.66180   1.00
C1       0.25000    0.25000    0.85520   1.00
C1       0.25000    0.35520    0.75000   1.00
C1       0.14480    0.25000    0.75000   1.00
C1       0.35520    0.25000    0.75000   1.00
C1       0.25000    0.14480    0.75000   1.00
C1       0.25000    0.25000    0.64480   1.00
O1       0.25000    0.75000    0.25000   1.00
Zn1      0.21720    0.78280    0.28280   1.00
Zn1      0.28280    0.71720    0.28280   1.00
Zn1      0.28280    0.78280    0.21720   1.00
Zn1      0.21720    0.71720    0.21720   1.00
O2       0.22650    0.77350    0.33820   1.00
O2       0.22650    0.83820    0.27350   1.00
O2       0.16180    0.77350    0.27350   1.00
O2       0.27350    0.72650    0.33820   1.00
O2       0.33820    0.72650    0.27350   1.00
O2       0.27350    0.66180    0.27350   1.00
O2       0.27350    0.83820    0.22650   1.00
O2       0.33820    0.77350    0.22650   1.00
O2       0.27350    0.77350    0.16180   1.00
O2       0.16180    0.72650    0.22650   1.00
O2       0.22650    0.66180    0.22650   1.00
O2       0.22650    0.72650    0.16180   1.00
C1       0.25000    0.75000    0.35520   1.00
C1       0.25000    0.85520    0.25000   1.00
C1       0.14480    0.75000    0.25000   1.00
C1       0.35520    0.75000    0.25000   1.00
C1       0.25000    0.64480    0.25000   1.00
C1       0.25000    0.75000    0.14480   1.00
O1       0.75000    0.25000    0.25000   1.00
Zn1      0.71720    0.28280    0.28280   1.00
Zn1      0.78280    0.21720    0.28280   1.00
Zn1      0.78280    0.28280    0.21720   1.00
Zn1      0.71720    0.21720    0.21720   1.00
O2       0.72650    0.27350    0.33820   1.00
O2       0.72650    0.33820    0.27350   1.00
O2       0.66180    0.27350    0.27350   1.00
O2       0.77350    0.22650    0.33820   1.00
O2       0.83820    0.22650    0.27350   1.00
O2       0.77350    0.16180    0.27350   1.00
O2       0.77350    0.33820    0.22650   1.00
O2       0.83820    0.27350    0.22650   1.00
O2       0.77350    0.27350    0.16180   1.00
O2       0.66180    0.22650    0.22650   1.00
O2       0.72650    0.16180    0.22650   1.00
O2       0.72650    0.22650    0.16180   1.00
C1       0.75000    0.25000    0.35520   1.00
C1       0.75000    0.35520    0.25000   1.00
C1       0.64480    0.25000    0.25000   1.00
C1       0.85520    0.25000    0.25000   1.00
C1       0.75000    0.14480    0.25000   1.00
C1       0.75000    0.25000    0.14480   1.00
O1       0.25000    0.25000    0.25000   1.00
Zn1      0.28280    0.21720    0.21720   1.00
Zn1      0.21720    0.28280    0.21720   1.00
Zn1      0.21720    0.21720    0.28280   1.00
Zn1      0.28280    0.28280    0.28280   1.00
O2       0.27350    0.22650    0.16180   1.00
O2       0.27350    0.16180    0.22650   1.00
O2       0.33820    0.22650    0.22650   1.00
O2       0.22650    0.27350    0.16180   1.00
O2       0.16180    0.27350    0.22650   1.00
O2       0.22650    0.33820    0.22650   1.00
O2       0.22650    0.16180    0.27350   1.00
O2       0.16180    0.22650    0.27350   1.00
O2       0.22650    0.22650    0.33820   1.00
O2       0.33820    0.27350    0.27350   1.00
O2       0.27350    0.33820    0.27350   1.00
O2       0.27350    0.27350    0.33820   1.00
C1       0.25000    0.25000    0.14480   1.00
C1       0.25000    0.14480    0.25000   1.00
C1       0.35520    0.25000    0.25000   1.00
C1       0.14480    0.25000    0.25000   1.00
C1       0.25000    0.35520    0.25000   1.00
C1       0.25000    0.25000    0.35520   1.00
O1       0.75000    0.75000    0.25000   1.00
Zn1      0.78280    0.71720    0.21720   1.00
Zn1      0.71720    0.78280    0.21720   1.00
Zn1      0.71720    0.71720    0.28280   1.00
Zn1      0.78280    0.78280    0.28280   1.00
O2       0.77350    0.72650    0.16180   1.00
O2       0.77350    0.66180    0.22650   1.00
O2       0.83820    0.72650    0.22650   1.00
O2       0.72650    0.77350    0.16180   1.00
O2       0.66180    0.77350    0.22650   1.00
O2       0.72650    0.83820    0.22650   1.00
O2       0.72650    0.66180    0.27350   1.00
O2       0.66180    0.72650    0.27350   1.00
O2       0.72650    0.72650    0.33820   1.00
O2       0.83820    0.77350    0.27350   1.00
O2       0.77350    0.83820    0.27350   1.00
O2       0.77350    0.77350    0.33820   1.00
C1       0.75000    0.75000    0.14480   1.00
C1       0.75000    0.64480    0.25000   1.00
C1       0.85520    0.75000    0.25000   1.00
C1       0.64480    0.75000    0.25000   1.00
C1       0.75000    0.85520    0.25000   1.00
C1       0.75000    0.75000    0.35520   1.00
O1       0.75000    0.25000    0.75000   1.00
Zn1      0.78280    0.21720    0.71720   1.00
Zn1      0.71720    0.28280    0.71720   1.00
Zn1      0.71720    0.21720    0.78280   1.00
Zn1      0.78280    0.28280    0.78280   1.00
O2       0.77350    0.22650    0.66180   1.00
O2       0.77350    0.16180    0.72650   1.00
O2       0.83820    0.22650    0.72650   1.00
O2       0.72650    0.27350    0.66180   1.00
O2       0.66180    0.27350    0.72650   1.00
O2       0.72650    0.33820    0.72650   1.00
O2       0.72650    0.16180    0.77350   1.00
O2       0.66180    0.22650    0.77350   1.00
O2       0.72650    0.22650    0.83820   1.00
O2       0.83820    0.27350    0.77350   1.00
O2       0.77350    0.33820    0.77350   1.00
O2       0.77350    0.27350    0.83820   1.00
C1       0.75000    0.25000    0.64480   1.00
C1       0.75000    0.14480    0.75000   1.00
C1       0.85520    0.25000    0.75000   1.00
C1       0.64480    0.25000    0.75000   1.00
C1       0.75000    0.35520    0.75000   1.00
C1       0.75000    0.25000    0.85520   1.00
O1       0.25000    0.75000    0.75000   1.00
Zn1      0.28280    0.71720    0.71720   1.00
Zn1      0.21720    0.78280    0.71720   1.00
Zn1      0.21720    0.71720    0.78280   1.00
Zn1      0.28280    0.78280    0.78280   1.00
O2       0.27350    0.72650    0.66180   1.00
O2       0.27350    0.66180    0.72650   1.00
O2       0.33820    0.72650    0.72650   1.00
O2       0.22650    0.77350    0.66180   1.00
O2       0.16180    0.77350    0.72650   1.00
O2       0.22650    0.83820    0.72650   1.00
O2       0.22650    0.66180    0.77350   1.00
O2       0.16180    0.72650    0.77350   1.00
O2       0.22650    0.72650    0.83820   1.00
O2       0.33820    0.77350    0.77350   1.00
O2       0.27350    0.83820    0.77350   1.00
O2       0.27350    0.77350    0.83820   1.00
C1       0.25000    0.75000    0.64480   1.00
C1       0.25000    0.64480    0.75000   1.00
C1       0.35520    0.75000    0.75000   1.00
C1       0.14480    0.75000    0.75000   1.00
C1       0.25000    0.85520    0.75000   1.00
C1       0.25000    0.75000    0.85520   1.00
C5       0.73330    0.87591    1.13227   1.00
H2       0.70802    0.86261    1.14755   1.00
H2       0.72076    0.89690    1.11099   1.00
C5       0.75935    0.89749    1.16219   1.00
H2       0.74729    0.92690    1.16890   1.00
H2       0.78943    0.90082    1.15040   1.00
O_3      0.81752    0.77115    0.98000   1.00
C4       0.74963    0.74975    1.02100   1.00
C3c      0.73859    0.78288    1.04243   1.00
H1       0.72973    0.80908    1.02725   1.00
C3d      0.76053    0.71573    1.04135   1.00
C3       0.73929    0.78301    1.08354   1.00
O2       0.72359    0.81476    1.10248   1.00
C3       0.76198    0.71600    1.08227   1.00
H1       0.77185    0.68968    1.09657   1.00
C2       0.75131    0.74940    1.10439   1.00
C5       0.84552    0.74095    0.97879   1.00
H2       0.85458    0.73380    0.94838   1.00
H2       0.83409    0.71380    0.99266   1.00
C5       0.88117    0.75480    1.00122   1.00
H2       0.87192    0.76299    1.03129   1.00
H2       0.89255    0.78170    0.98691   1.00
C5       0.91268    0.72304    1.00254   1.00
H2       0.92186    0.71452    0.97260   1.00
H2       0.90179    0.69665    1.01803   1.00
H2       0.93884    0.73399    1.01830   1.00
C5       0.74289    0.65916    1.01105   1.00
C5       0.75325    0.84224    1.11070   1.00
H2       0.72259    0.67448    0.99088   1.00
H2       0.72613    0.64918    1.03712   1.00
H2       0.76662    0.85293    1.08300   1.00
H2       0.77723    0.82968    1.12895   1.00
H2       0.76062    0.88140    1.19055   1.00
H2       0.71686    0.61758    0.94250   1.00
H2       0.70324    0.59331    0.98766   1.00
C2       0.75234    0.74893    0.89605   1.00
C3       0.71737    0.74010    0.91597   1.00
O2       0.68702    0.72194    0.89674   1.00
C3       0.78541    0.75979    0.91826   1.00
H1       0.81232    0.76770    0.90385   1.00
C3a      0.71649    0.74130    0.95713   1.00
H1       0.69016    0.73231    0.97202   1.00
C3b      0.78478    0.75974    0.95922   1.00
C4       0.75018    0.75038    0.97900   1.00
O_3      0.77447    0.68334    1.02167   1.00
C5       0.65779    0.74933    0.88720   1.00
H2       0.64592    0.76374    0.91391   1.00
C5       0.62507    0.72691    0.86666   1.00
H2       0.66938    0.77227    0.86726   1.00
H2       0.60702    0.71207    0.88923   1.00
H2       0.63896    0.70343    0.84899   1.00
C5       0.59940    0.75322    0.84069   1.00
H2       0.58829    0.77821    0.85811   1.00
H2       0.57408    0.73660    0.82891   1.00
H2       0.61604    0.76440    0.81494   1.00
C5       0.75962    0.62368    0.99020   1.00
H2       0.77438    0.60483    1.01218   1.00
H2       0.78257    0.63389    0.96955   1.00
C5       0.72802    0.60071    0.96803   1.00
H2       0.74043    0.57299    0.95666   1.00
C5       0.87591    1.13227    0.73330   1.00
H2       0.86261    1.14755    0.70802   1.00
H2       0.89690    1.11099    0.72076   1.00
C5       0.89749    1.16219    0.75935   1.00
H2       0.92690    1.16890    0.74729   1.00
H2       0.90082    1.15040    0.78943   1.00
O_3      0.77115    0.98000    0.81752   1.00
C4       0.74975    1.02100    0.74963   1.00
C3c      0.78288    1.04243    0.73859   1.00
H1       0.80908    1.02725    0.72973   1.00
C3d      0.71573    1.04135    0.76053   1.00
C3       0.78301    1.08354    0.73929   1.00
O2       0.81476    1.10248    0.72359   1.00
C3       0.71600    1.08227    0.76198   1.00
H1       0.68968    1.09657    0.77185   1.00
C2       0.74940    1.10439    0.75131   1.00
C5       0.74095    0.97879    0.84552   1.00
H2       0.73380    0.94838    0.85458   1.00
H2       0.71380    0.99266    0.83409   1.00
C5       0.75480    1.00122    0.88117   1.00
H2       0.76299    1.03129    0.87192   1.00
H2       0.78170    0.98691    0.89255   1.00
C5       0.72304    1.00254    0.91268   1.00
H2       0.71452    0.97260    0.92186   1.00
H2       0.69665    1.01803    0.90179   1.00
H2       0.73399    1.01830    0.93884   1.00
C5       0.65916    1.01105    0.74289   1.00
C5       0.84224    1.11070    0.75325   1.00
H2       0.67448    0.99088    0.72259   1.00
H2       0.64918    1.03712    0.72613   1.00
H2       0.85293    1.08300    0.76662   1.00
H2       0.82968    1.12895    0.77723   1.00
H2       0.88140    1.19055    0.76062   1.00
H2       0.61758    0.94250    0.71686   1.00
H2       0.59331    0.98766    0.70324   1.00
C2       0.74893    0.89605    0.75234   1.00
C3       0.74010    0.91597    0.71737   1.00
O2       0.72194    0.89674    0.68702   1.00
C3       0.75979    0.91826    0.78541   1.00
H1       0.76770    0.90385    0.81232   1.00
C3a      0.74130    0.95713    0.71649   1.00
H1       0.73231    0.97202    0.69016   1.00
C3b      0.75974    0.95922    0.78478   1.00
C4       0.75038    0.97900    0.75018   1.00
O_3      0.68334    1.02167    0.77447   1.00
C5       0.74933    0.88720    0.65779   1.00
H2       0.76374    0.91391    0.64592   1.00
C5       0.72691    0.86666    0.62507   1.00
H2       0.77227    0.86726    0.66938   1.00
H2       0.71207    0.88923    0.60702   1.00
H2       0.70343    0.84899    0.63896   1.00
C5       0.75322    0.84069    0.59940   1.00
H2       0.77821    0.85811    0.58829   1.00
H2       0.73660    0.82891    0.57408   1.00
H2       0.76440    0.81494    0.61604   1.00
C5       0.62368    0.99020    0.75962   1.00
H2       0.60483    1.01218    0.77438   1.00
H2       0.63389    0.96955    0.78257   1.00
C5       0.60071    0.96803    0.72802   1.00
H2       0.57299    0.95666    0.74043   1.00
C5       0.36773    0.73330    0.62409   1.00
H2       0.35245    0.70802    0.63739   1.00
H2       0.38901    0.72076    0.60310   1.00
C5       0.33781    0.75935    0.60251   1.00
H2       0.33110    0.74729    0.57310   1.00
H2       0.34960    0.78943    0.59918   1.00
O_3      0.52000    0.81752    0.72885   1.00
C4       0.47900    0.74963    0.75025   1.00
C3c      0.45757    0.73859    0.71712   1.00
H1       0.47275    0.72973    0.69092   1.00
C3d      0.45865    0.76053    0.78427   1.00
C3       0.41646    0.73929    0.71699   1.00
O2       0.39752    0.72359    0.68524   1.00
C3       0.41773    0.76198    0.78400   1.00
H1       0.40343    0.77185    0.81032   1.00
C2       0.39561    0.75131    0.75060   1.00
C5       0.52121    0.84552    0.75905   1.00
H2       0.55162    0.85458    0.76620   1.00
H2       0.50734    0.83409    0.78620   1.00
C5       0.49878    0.88117    0.74520   1.00
H2       0.46871    0.87192    0.73701   1.00
H2       0.51309    0.89255    0.71830   1.00
C5       0.49746    0.91268    0.77696   1.00
H2       0.52740    0.92186    0.78548   1.00
H2       0.48197    0.90179    0.80335   1.00
H2       0.48170    0.93884    0.76601   1.00
C5       0.48895    0.74289    0.84084   1.00
C5       0.38930    0.75325    0.65776   1.00
H2       0.50912    0.72259    0.82552   1.00
H2       0.46288    0.72613    0.85082   1.00
H2       0.41700    0.76662    0.64707   1.00
H2       0.37105    0.77723    0.67032   1.00
H2       0.30945    0.76062    0.61860   1.00
H2       0.55750    0.71686    0.88242   1.00
H2       0.51234    0.70324    0.90669   1.00
C2       0.60395    0.75234    0.75107   1.00
C3       0.58403    0.71737    0.75990   1.00
O2       0.60326    0.68702    0.77806   1.00
C3       0.58174    0.78541    0.74021   1.00
H1       0.59615    0.81232    0.73230   1.00
C3a      0.54287    0.71649    0.75870   1.00
H1       0.52798    0.69016    0.76769   1.00
C3b      0.54078    0.78478    0.74026   1.00
C4       0.52100    0.75018    0.74962   1.00
O_3      0.47833    0.77447    0.81666   1.00
C5       0.61280    0.65779    0.75067   1.00
H2       0.58609    0.64592    0.73626   1.00
C5       0.63334    0.62507    0.77309   1.00
H2       0.63274    0.66938    0.72773   1.00
H2       0.61077    0.60702    0.78793   1.00
H2       0.65101    0.63896    0.79657   1.00
C5       0.65931    0.59940    0.74678   1.00
H2       0.64189    0.58829    0.72179   1.00
H2       0.67109    0.57408    0.76340   1.00
H2       0.68506    0.61604    0.73560   1.00
C5       0.50980    0.75962    0.87632   1.00
H2       0.48782    0.77438    0.89517   1.00
H2       0.53045    0.78257    0.86611   1.00
C5       0.53197    0.72802    0.89929   1.00
H2       0.54334    0.74043    0.92701   1.00
C5       1.13227    0.73330    0.87591   1.00
H2       1.14755    0.70802    0.86261   1.00
H2       1.11099    0.72076    0.89690   1.00
C5       1.16219    0.75935    0.89749   1.00
H2       1.16890    0.74729    0.92690   1.00
H2       1.15040    0.78943    0.90082   1.00
O_3      0.98000    0.81752    0.77115   1.00
C4       1.02100    0.74963    0.74975   1.00
C3c      1.04243    0.73859    0.78288   1.00
H1       1.02725    0.72973    0.80908   1.00
C3d      1.04135    0.76053    0.71573   1.00
C3       1.08354    0.73929    0.78301   1.00
O2       1.10248    0.72359    0.81476   1.00
C3       1.08227    0.76198    0.71600   1.00
H1       1.09657    0.77185    0.68968   1.00
C2       1.10439    0.75131    0.74940   1.00
C5       0.97879    0.84552    0.74095   1.00
H2       0.94838    0.85458    0.73380   1.00
H2       0.99266    0.83409    0.71380   1.00
C5       1.00122    0.88117    0.75480   1.00
H2       1.03129    0.87192    0.76299   1.00
H2       0.98691    0.89255    0.78170   1.00
C5       1.00254    0.91268    0.72304   1.00
H2       0.97260    0.92186    0.71452   1.00
H2       1.01803    0.90179    0.69665   1.00
H2       1.01830    0.93884    0.73399   1.00
C5       1.01105    0.74289    0.65916   1.00
C5       1.11070    0.75325    0.84224   1.00
H2       0.99088    0.72259    0.67448   1.00
H2       1.03712    0.72613    0.64918   1.00
H2       1.08300    0.76662    0.85293   1.00
H2       1.12895    0.77723    0.82968   1.00
H2       1.19055    0.76062    0.88140   1.00
H2       0.94250    0.71686    0.61758   1.00
H2       0.98766    0.70324    0.59331   1.00
C2       0.89605    0.75234    0.74893   1.00
C3       0.91597    0.71737    0.74010   1.00
O2       0.89674    0.68702    0.72194   1.00
C3       0.91826    0.78541    0.75979   1.00
H1       0.90385    0.81232    0.76770   1.00
C3a      0.95713    0.71649    0.74130   1.00
H1       0.97202    0.69016    0.73231   1.00
C3b      0.95922    0.78478    0.75974   1.00
C4       0.97900    0.75018    0.75038   1.00
O_3      1.02167    0.77447    0.68334   1.00
C5       0.88720    0.65779    0.74933   1.00
H2       0.91391    0.64592    0.76374   1.00
C5       0.86666    0.62507    0.72691   1.00
H2       0.86726    0.66938    0.77227   1.00
H2       0.88923    0.60702    0.71207   1.00
H2       0.84899    0.63896    0.70343   1.00
C5       0.84069    0.59940    0.75322   1.00
H2       0.85811    0.58829    0.77821   1.00
H2       0.82891    0.57408    0.73660   1.00
H2       0.81494    0.61604    0.76440   1.00
C5       0.99020    0.75962    0.62368   1.00
H2       1.01218    0.77438    0.60483   1.00
H2       0.96955    0.78257    0.63389   1.00
C5       0.96803    0.72802    0.60071   1.00
H2       0.95666    0.74043    0.57299   1.00
C5       0.62409    0.36773    0.73330   1.00
H2       0.63739    0.35245    0.70802   1.00
H2       0.60310    0.38901    0.72076   1.00
C5       0.60251    0.33781    0.75935   1.00
H2       0.57310    0.33110    0.74729   1.00
H2       0.59918    0.34960    0.78943   1.00
O_3      0.72885    0.52000    0.81752   1.00
C4       0.75025    0.47900    0.74963   1.00
C3c      0.71712    0.45757    0.73859   1.00
H1       0.69092    0.47275    0.72973   1.00
C3d      0.78427    0.45865    0.76053   1.00
C3       0.71699    0.41646    0.73929   1.00
O2       0.68524    0.39752    0.72359   1.00
C3       0.78400    0.41773    0.76198   1.00
H1       0.81032    0.40343    0.77185   1.00
C2       0.75060    0.39561    0.75131   1.00
C5       0.75905    0.52121    0.84552   1.00
H2       0.76620    0.55162    0.85458   1.00
H2       0.78620    0.50734    0.83409   1.00
C5       0.74520    0.49878    0.88117   1.00
H2       0.73701    0.46871    0.87192   1.00
H2       0.71830    0.51309    0.89255   1.00
C5       0.77696    0.49746    0.91268   1.00
H2       0.78548    0.52740    0.92186   1.00
H2       0.80335    0.48197    0.90179   1.00
H2       0.76601    0.48170    0.93884   1.00
C5       0.84084    0.48895    0.74289   1.00
C5       0.65776    0.38930    0.75325   1.00
H2       0.82552    0.50912    0.72259   1.00
H2       0.85082    0.46288    0.72613   1.00
H2       0.64707    0.41700    0.76662   1.00
H2       0.67032    0.37105    0.77723   1.00
H2       0.61860    0.30945    0.76062   1.00
H2       0.88242    0.55750    0.71686   1.00
H2       0.90669    0.51234    0.70324   1.00
C2       0.75107    0.60395    0.75234   1.00
C3       0.75990    0.58403    0.71737   1.00
O2       0.77806    0.60326    0.68702   1.00
C3       0.74021    0.58174    0.78541   1.00
H1       0.73230    0.59615    0.81232   1.00
C3a      0.75870    0.54287    0.71649   1.00
H1       0.76769    0.52798    0.69016   1.00
C3b      0.74026    0.54078    0.78478   1.00
C4       0.74962    0.52100    0.75018   1.00
O_3      0.81666    0.47833    0.77447   1.00
C5       0.75067    0.61280    0.65779   1.00
H2       0.73626    0.58609    0.64592   1.00
C5       0.77309    0.63334    0.62507   1.00
H2       0.72773    0.63274    0.66938   1.00
H2       0.78793    0.61077    0.60702   1.00
H2       0.79657    0.65101    0.63896   1.00
C5       0.74678    0.65931    0.59940   1.00
H2       0.72179    0.64189    0.58829   1.00
H2       0.76340    0.67109    0.57408   1.00
H2       0.73560    0.68506    0.61604   1.00
C5       0.87632    0.50980    0.75962   1.00
H2       0.89517    0.48782    0.77438   1.00
H2       0.86611    0.53045    0.78257   1.00
C5       0.89929    0.53197    0.72802   1.00
H2       0.92701    0.54334    0.74043   1.00
C5       0.73330    0.62409    0.36773   1.00
H2       0.70802    0.63739    0.35245   1.00
H2       0.72076    0.60310    0.38901   1.00
C5       0.75935    0.60251    0.33781   1.00
H2       0.74729    0.57310    0.33110   1.00
H2       0.78943    0.59918    0.34960   1.00
O_3      0.81752    0.72885    0.52000   1.00
C4       0.74963    0.75025    0.47900   1.00
C3c      0.73859    0.71712    0.45757   1.00
H1       0.72973    0.69092    0.47275   1.00
C3d      0.76053    0.78427    0.45865   1.00
C3       0.73929    0.71699    0.41646   1.00
O2       0.72359    0.68524    0.39752   1.00
C3       0.76198    0.78400    0.41773   1.00
H1       0.77185    0.81032    0.40343   1.00
C2       0.75131    0.75060    0.39561   1.00
C5       0.84552    0.75905    0.52121   1.00
H2       0.85458    0.76620    0.55162   1.00
H2       0.83409    0.78620    0.50734   1.00
C5       0.88117    0.74520    0.49878   1.00
H2       0.87192    0.73701    0.46871   1.00
H2       0.89255    0.71830    0.51309   1.00
C5       0.91268    0.77696    0.49746   1.00
H2       0.92186    0.78548    0.52740   1.00
H2       0.90179    0.80335    0.48197   1.00
H2       0.93884    0.76601    0.48170   1.00
C5       0.74289    0.84084    0.48895   1.00
C5       0.75325    0.65776    0.38930   1.00
H2       0.72259    0.82552    0.50912   1.00
H2       0.72613    0.85082    0.46288   1.00
H2       0.76662    0.64707    0.41700   1.00
H2       0.77723    0.67032    0.37105   1.00
H2       0.76062    0.61860    0.30945   1.00
H2       0.71686    0.88242    0.55750   1.00
H2       0.70324    0.90669    0.51234   1.00
C2       0.75234    0.75107    0.60395   1.00
C3       0.71737    0.75990    0.58403   1.00
O2       0.68702    0.77806    0.60326   1.00
C3       0.78541    0.74021    0.58174   1.00
H1       0.81232    0.73230    0.59615   1.00
C3a      0.71649    0.75870    0.54287   1.00
H1       0.69016    0.76769    0.52798   1.00
C3b      0.78478    0.74026    0.54078   1.00
C4       0.75018    0.74962    0.52100   1.00
O_3      0.77447    0.81666    0.47833   1.00
C5       0.65779    0.75067    0.61280   1.00
H2       0.64592    0.73626    0.58609   1.00
C5       0.62507    0.77309    0.63334   1.00
H2       0.66938    0.72773    0.63274   1.00
H2       0.60702    0.78793    0.61077   1.00
H2       0.63896    0.79657    0.65101   1.00
C5       0.59940    0.74678    0.65931   1.00
H2       0.58829    0.72179    0.64189   1.00
H2       0.57408    0.76340    0.67109   1.00
H2       0.61604    0.73560    0.68506   1.00
C5       0.75962    0.87632    0.50980   1.00
H2       0.77438    0.89517    0.48782   1.00
H2       0.78257    0.86611    0.53045   1.00
C5       0.72802    0.89929    0.53197   1.00
H2       0.74043    0.92701    0.54334   1.00
C5       0.23330    0.37591    1.13227   1.00
H2       0.20802    0.36261    1.14755   1.00
H2       0.22076    0.39690    1.11099   1.00
C5       0.25935    0.39749    1.16219   1.00
H2       0.24729    0.42690    1.16890   1.00
H2       0.28943    0.40082    1.15040   1.00
O_3      0.31752    0.27115    0.98000   1.00
C4       0.24963    0.24975    1.02100   1.00
C3c      0.23859    0.28288    1.04243   1.00
H1       0.22973    0.30908    1.02725   1.00
C3d      0.26053    0.21573    1.04135   1.00
C3       0.23929    0.28301    1.08354   1.00
O2       0.22359    0.31476    1.10248   1.00
C3       0.26198    0.21600    1.08227   1.00
H1       0.27185    0.18968    1.09657   1.00
C2       0.25131    0.24940    1.10439   1.00
C5       0.34552    0.24095    0.97879   1.00
H2       0.35458    0.23380    0.94838   1.00
H2       0.33409    0.21380    0.99266   1.00
C5       0.38117    0.25480    1.00122   1.00
H2       0.37192    0.26299    1.03129   1.00
H2       0.39255    0.28170    0.98691   1.00
C5       0.41268    0.22304    1.00254   1.00
H2       0.42186    0.21452    0.97260   1.00
H2       0.40179    0.19665    1.01803   1.00
H2       0.43884    0.23399    1.01830   1.00
C5       0.24289    0.15916    1.01105   1.00
C5       0.25325    0.34224    1.11070   1.00
H2       0.22259    0.17448    0.99088   1.00
H2       0.22613    0.14918    1.03712   1.00
H2       0.26662    0.35293    1.08300   1.00
H2       0.27723    0.32968    1.12895   1.00
H2       0.26062    0.38140    1.19055   1.00
H2       0.21686    0.11758    0.94250   1.00
H2       0.20324    0.09331    0.98766   1.00
C2       0.25234    0.24893    0.89605   1.00
C3       0.21737    0.24010    0.91597   1.00
O2       0.18702    0.22194    0.89674   1.00
C3       0.28541    0.25979    0.91826   1.00
H1       0.31232    0.26770    0.90385   1.00
C3a      0.21649    0.24130    0.95713   1.00
H1       0.19016    0.23231    0.97202   1.00
C3b      0.28478    0.25974    0.95922   1.00
C4       0.25018    0.25038    0.97900   1.00
O_3      0.27447    0.18334    1.02167   1.00
C5       0.15779    0.24933    0.88720   1.00
H2       0.14592    0.26374    0.91391   1.00
C5       0.12507    0.22691    0.86666   1.00
H2       0.16938    0.27227    0.86726   1.00
H2       0.10702    0.21207    0.88923   1.00
H2       0.13896    0.20343    0.84899   1.00
C5       0.09940    0.25322    0.84069   1.00
H2       0.08829    0.27821    0.85811   1.00
H2       0.07408    0.23660    0.82891   1.00
H2       0.11604    0.26440    0.81494   1.00
C5       0.25962    0.12368    0.99020   1.00
H2       0.27438    0.10483    1.01218   1.00
H2       0.28257    0.13389    0.96955   1.00
C5       0.22802    0.10071    0.96803   1.00
H2       0.24043    0.07299    0.95666   1.00
C5       0.37591    0.63227    0.73330   1.00
H2       0.36261    0.64755    0.70802   1.00
H2       0.39690    0.61099    0.72076   1.00
C5       0.39749    0.66219    0.75935   1.00
H2       0.42690    0.66890    0.74729   1.00
H2       0.40082    0.65040    0.78943   1.00
O_3      0.27115    0.48000    0.81752   1.00
C4       0.24975    0.52100    0.74963   1.00
C3c      0.28288    0.54243    0.73859   1.00
H1       0.30908    0.52725    0.72973   1.00
C3d      0.21573    0.54135    0.76053   1.00
C3       0.28301    0.58354    0.73929   1.00
O2       0.31476    0.60248    0.72359   1.00
C3       0.21600    0.58227    0.76198   1.00
H1       0.18968    0.59657    0.77185   1.00
C2       0.24940    0.60439    0.75131   1.00
C5       0.24095    0.47879    0.84552   1.00
H2       0.23380    0.44838    0.85458   1.00
H2       0.21380    0.49266    0.83409   1.00
C5       0.25480    0.50122    0.88117   1.00
H2       0.26299    0.53129    0.87192   1.00
H2       0.28170    0.48691    0.89255   1.00
C5       0.22304    0.50254    0.91268   1.00
H2       0.21452    0.47260    0.92186   1.00
H2       0.19665    0.51803    0.90179   1.00
H2       0.23399    0.51830    0.93884   1.00
C5       0.15916    0.51105    0.74289   1.00
C5       0.34224    0.61070    0.75325   1.00
H2       0.17448    0.49088    0.72259   1.00
H2       0.14918    0.53712    0.72613   1.00
H2       0.35293    0.58300    0.76662   1.00
H2       0.32968    0.62895    0.77723   1.00
H2       0.38140    0.69055    0.76062   1.00
H2       0.11758    0.44250    0.71686   1.00
H2       0.09331    0.48766    0.70324   1.00
C2       0.24893    0.39605    0.75234   1.00
C3       0.24010    0.41597    0.71737   1.00
O2       0.22194    0.39674    0.68702   1.00
C3       0.25979    0.41826    0.78541   1.00
H1       0.26770    0.40385    0.81232   1.00
C3a      0.24130    0.45713    0.71649   1.00
H1       0.23231    0.47202    0.69016   1.00
C3b      0.25974    0.45922    0.78478   1.00
C4       0.25038    0.47900    0.75018   1.00
O_3      0.18334    0.52167    0.77447   1.00
C5       0.24933    0.38720    0.65779   1.00
H2       0.26374    0.41391    0.64592   1.00
C5       0.22691    0.36666    0.62507   1.00
H2       0.27227    0.36726    0.66938   1.00
H2       0.21207    0.38923    0.60702   1.00
H2       0.20343    0.34899    0.63896   1.00
C5       0.25322    0.34069    0.59940   1.00
H2       0.27821    0.35811    0.58829   1.00
H2       0.23660    0.32891    0.57408   1.00
H2       0.26440    0.31494    0.61604   1.00
C5       0.12368    0.49020    0.75962   1.00
H2       0.10483    0.51218    0.77438   1.00
H2       0.13389    0.46955    0.78257   1.00
C5       0.10071    0.46803    0.72802   1.00
H2       0.07299    0.45666    0.74043   1.00
C5       -0.13227   0.23330    0.62409   1.00
H2       -0.14755   0.20802    0.63739   1.00
H2       -0.11099   0.22076    0.60310   1.00
C5       -0.16219   0.25935    0.60251   1.00
H2       -0.16890   0.24729    0.57310   1.00
H2       -0.15040   0.28943    0.59918   1.00
O_3      0.02000    0.31752    0.72885   1.00
C4       -0.02100   0.24963    0.75025   1.00
C3c      -0.04243   0.23859    0.71712   1.00
H1       -0.02725   0.22973    0.69092   1.00
C3d      -0.04135   0.26053    0.78427   1.00
C3       -0.08354   0.23929    0.71699   1.00
O2       -0.10248   0.22359    0.68524   1.00
C3       -0.08227   0.26198    0.78400   1.00
H1       -0.09657   0.27185    0.81032   1.00
C2       -0.10439   0.25131    0.75060   1.00
C5       0.02121    0.34552    0.75905   1.00
H2       0.05162    0.35458    0.76620   1.00
H2       0.00734    0.33409    0.78620   1.00
C5       -0.00122   0.38117    0.74520   1.00
H2       -0.03129   0.37192    0.73701   1.00
H2       0.01309    0.39255    0.71830   1.00
C5       -0.00254   0.41268    0.77696   1.00
H2       0.02740    0.42186    0.78548   1.00
H2       -0.01803   0.40179    0.80335   1.00
H2       -0.01830   0.43884    0.76601   1.00
C5       -0.01105   0.24289    0.84084   1.00
C5       -0.11070   0.25325    0.65776   1.00
H2       0.00912    0.22259    0.82552   1.00
H2       -0.03712   0.22613    0.85082   1.00
H2       -0.08300   0.26662    0.64707   1.00
H2       -0.12895   0.27723    0.67032   1.00
H2       -0.19055   0.26062    0.61860   1.00
H2       0.05750    0.21686    0.88242   1.00
H2       0.01234    0.20324    0.90669   1.00
C2       0.10395    0.25234    0.75107   1.00
C3       0.08403    0.21737    0.75990   1.00
O2       0.10326    0.18702    0.77806   1.00
C3       0.08174    0.28541    0.74021   1.00
H1       0.09615    0.31232    0.73230   1.00
C3a      0.04287    0.21649    0.75870   1.00
H1       0.02798    0.19016    0.76769   1.00
C3b      0.04078    0.28478    0.74026   1.00
C4       0.02100    0.25018    0.74962   1.00
O_3      -0.02167   0.27447    0.81666   1.00
C5       0.11280    0.15779    0.75067   1.00
H2       0.08609    0.14592    0.73626   1.00
C5       0.13334    0.12507    0.77309   1.00
H2       0.13274    0.16938    0.72773   1.00
H2       0.11077    0.10702    0.78793   1.00
H2       0.15101    0.13896    0.79657   1.00
C5       0.15931    0.09940    0.74678   1.00
H2       0.14189    0.08829    0.72179   1.00
H2       0.17109    0.07408    0.76340   1.00
H2       0.18506    0.11604    0.73560   1.00
C5       0.00980    0.25962    0.87632   1.00
H2       -0.01218   0.27438    0.89517   1.00
H2       0.03045    0.28257    0.86611   1.00
C5       0.03197    0.22802    0.89929   1.00
H2       0.04334    0.24043    0.92701   1.00
C5       0.63227    0.23330    0.87591   1.00
H2       0.64755    0.20802    0.86261   1.00
H2       0.61099    0.22076    0.89690   1.00
C5       0.66219    0.25935    0.89749   1.00
H2       0.66890    0.24729    0.92690   1.00
H2       0.65040    0.28943    0.90082   1.00
O_3      0.48000    0.31752    0.77115   1.00
C4       0.52100    0.24963    0.74975   1.00
C3c      0.54243    0.23859    0.78288   1.00
H1       0.52725    0.22973    0.80908   1.00
C3d      0.54135    0.26053    0.71573   1.00
C3       0.58354    0.23929    0.78301   1.00
O2       0.60248    0.22359    0.81476   1.00
C3       0.58227    0.26198    0.71600   1.00
H1       0.59657    0.27185    0.68968   1.00
C2       0.60439    0.25131    0.74940   1.00
C5       0.47879    0.34552    0.74095   1.00
H2       0.44838    0.35458    0.73380   1.00
H2       0.49266    0.33409    0.71380   1.00
C5       0.50122    0.38117    0.75480   1.00
H2       0.53129    0.37192    0.76299   1.00
H2       0.48691    0.39255    0.78170   1.00
C5       0.50254    0.41268    0.72304   1.00
H2       0.47260    0.42186    0.71452   1.00
H2       0.51803    0.40179    0.69665   1.00
H2       0.51830    0.43884    0.73399   1.00
C5       0.51105    0.24289    0.65916   1.00
C5       0.61070    0.25325    0.84224   1.00
H2       0.49088    0.22259    0.67448   1.00
H2       0.53712    0.22613    0.64918   1.00
H2       0.58300    0.26662    0.85293   1.00
H2       0.62895    0.27723    0.82968   1.00
H2       0.69055    0.26062    0.88140   1.00
H2       0.44250    0.21686    0.61758   1.00
H2       0.48766    0.20324    0.59331   1.00
C2       0.39605    0.25234    0.74893   1.00
C3       0.41597    0.21737    0.74010   1.00
O2       0.39674    0.18702    0.72194   1.00
C3       0.41826    0.28541    0.75979   1.00
H1       0.40385    0.31232    0.76770   1.00
C3a      0.45713    0.21649    0.74130   1.00
H1       0.47202    0.19016    0.73231   1.00
C3b      0.45922    0.28478    0.75974   1.00
C4       0.47900    0.25018    0.75038   1.00
O_3      0.52167    0.27447    0.68334   1.00
C5       0.38720    0.15779    0.74933   1.00
H2       0.41391    0.14592    0.76374   1.00
C5       0.36666    0.12507    0.72691   1.00
H2       0.36726    0.16938    0.77227   1.00
H2       0.38923    0.10702    0.71207   1.00
H2       0.34899    0.13896    0.70343   1.00
C5       0.34069    0.09940    0.75322   1.00
H2       0.35811    0.08829    0.77821   1.00
H2       0.32891    0.07408    0.73660   1.00
H2       0.31494    0.11604    0.76440   1.00
C5       0.49020    0.25962    0.62368   1.00
H2       0.51218    0.27438    0.60483   1.00
H2       0.46955    0.28257    0.63389   1.00
C5       0.46803    0.22802    0.60071   1.00
H2       0.45666    0.24043    0.57299   1.00
C5       0.12409    -0.13227   0.73330   1.00
H2       0.13739    -0.14755   0.70802   1.00
H2       0.10310    -0.11099   0.72076   1.00
C5       0.10251    -0.16219   0.75935   1.00
H2       0.07310    -0.16890   0.74729   1.00
H2       0.09918    -0.15040   0.78943   1.00
O_3      0.22885    0.02000    0.81752   1.00
C4       0.25025    -0.02100   0.74963   1.00
C3c      0.21712    -0.04243   0.73859   1.00
H1       0.19092    -0.02725   0.72973   1.00
C3d      0.28427    -0.04135   0.76053   1.00
C3       0.21699    -0.08354   0.73929   1.00
O2       0.18524    -0.10248   0.72359   1.00
C3       0.28400    -0.08227   0.76198   1.00
H1       0.31032    -0.09657   0.77185   1.00
C2       0.25060    -0.10439   0.75131   1.00
C5       0.25905    0.02121    0.84552   1.00
H2       0.26620    0.05162    0.85458   1.00
H2       0.28620    0.00734    0.83409   1.00
C5       0.24520    -0.00122   0.88117   1.00
H2       0.23701    -0.03129   0.87192   1.00
H2       0.21830    0.01309    0.89255   1.00
C5       0.27696    -0.00254   0.91268   1.00
H2       0.28548    0.02740    0.92186   1.00
H2       0.30335    -0.01803   0.90179   1.00
H2       0.26601    -0.01830   0.93884   1.00
C5       0.34084    -0.01105   0.74289   1.00
C5       0.15776    -0.11070   0.75325   1.00
H2       0.32552    0.00912    0.72259   1.00
H2       0.35082    -0.03712   0.72613   1.00
H2       0.14707    -0.08300   0.76662   1.00
H2       0.17032    -0.12895   0.77723   1.00
H2       0.11860    -0.19055   0.76062   1.00
H2       0.38242    0.05750    0.71686   1.00
H2       0.40669    0.01234    0.70324   1.00
C2       0.25107    0.10395    0.75234   1.00
C3       0.25990    0.08403    0.71737   1.00
O2       0.27806    0.10326    0.68702   1.00
C3       0.24021    0.08174    0.78541   1.00
H1       0.23230    0.09615    0.81232   1.00
C3a      0.25870    0.04287    0.71649   1.00
H1       0.26769    0.02798    0.69016   1.00
C3b      0.24026    0.04078    0.78478   1.00
C4       0.24962    0.02100    0.75018   1.00
O_3      0.31666    -0.02167   0.77447   1.00
C5       0.25067    0.11280    0.65779   1.00
H2       0.23626    0.08609    0.64592   1.00
C5       0.27309    0.13334    0.62507   1.00
H2       0.22773    0.13274    0.66938   1.00
H2       0.28793    0.11077    0.60702   1.00
H2       0.29657    0.15101    0.63896   1.00
C5       0.24678    0.15931    0.59940   1.00
H2       0.22179    0.14189    0.58829   1.00
H2       0.26340    0.17109    0.57408   1.00
H2       0.23560    0.18506    0.61604   1.00
C5       0.37632    0.00980    0.75962   1.00
H2       0.39517    -0.01218   0.77438   1.00
H2       0.36611    0.03045    0.78257   1.00
C5       0.39929    0.03197    0.72802   1.00
H2       0.42701    0.04334    0.74043   1.00
C5       0.23330    0.12409    0.36773   1.00
H2       0.20802    0.13739    0.35245   1.00
H2       0.22076    0.10310    0.38901   1.00
C5       0.25935    0.10251    0.33781   1.00
H2       0.24729    0.07310    0.33110   1.00
H2       0.28943    0.09918    0.34960   1.00
O_3      0.31752    0.22885    0.52000   1.00
C4       0.24963    0.25025    0.47900   1.00
C3c      0.23859    0.21712    0.45757   1.00
H1       0.22973    0.19092    0.47275   1.00
C3d      0.26053    0.28427    0.45865   1.00
C3       0.23929    0.21699    0.41646   1.00
O2       0.22359    0.18524    0.39752   1.00
C3       0.26198    0.28400    0.41773   1.00
H1       0.27185    0.31032    0.40343   1.00
C2       0.25131    0.25060    0.39561   1.00
C5       0.34552    0.25905    0.52121   1.00
H2       0.35458    0.26620    0.55162   1.00
H2       0.33409    0.28620    0.50734   1.00
C5       0.38117    0.24520    0.49878   1.00
H2       0.37192    0.23701    0.46871   1.00
H2       0.39255    0.21830    0.51309   1.00
C5       0.41268    0.27696    0.49746   1.00
H2       0.42186    0.28548    0.52740   1.00
H2       0.40179    0.30335    0.48197   1.00
H2       0.43884    0.26601    0.48170   1.00
C5       0.24289    0.34084    0.48895   1.00
C5       0.25325    0.15776    0.38930   1.00
H2       0.22259    0.32552    0.50912   1.00
H2       0.22613    0.35082    0.46288   1.00
H2       0.26662    0.14707    0.41700   1.00
H2       0.27723    0.17032    0.37105   1.00
H2       0.26062    0.11860    0.30945   1.00
H2       0.21686    0.38242    0.55750   1.00
H2       0.20324    0.40669    0.51234   1.00
C2       0.25234    0.25107    0.60395   1.00
C3       0.21737    0.25990    0.58403   1.00
O2       0.18702    0.27806    0.60326   1.00
C3       0.28541    0.24021    0.58174   1.00
H1       0.31232    0.23230    0.59615   1.00
C3a      0.21649    0.25870    0.54287   1.00
H1       0.19016    0.26769    0.52798   1.00
C3b      0.28478    0.24026    0.54078   1.00
C4       0.25018    0.24962    0.52100   1.00
O_3      0.27447    0.31666    0.47833   1.00
C5       0.15779    0.25067    0.61280   1.00
H2       0.14592    0.23626    0.58609   1.00
C5       0.12507    0.27309    0.63334   1.00
H2       0.16938    0.22773    0.63274   1.00
H2       0.10702    0.28793    0.61077   1.00
H2       0.13896    0.29657    0.65101   1.00
C5       0.09940    0.24678    0.65931   1.00
H2       0.08829    0.22179    0.64189   1.00
H2       0.07408    0.26340    0.67109   1.00
H2       0.11604    0.23560    0.68506   1.00
C5       0.25962    0.37632    0.50980   1.00
H2       0.27438    0.39517    0.48782   1.00
H2       0.28257    0.36611    0.53045   1.00
C5       0.22802    0.39929    0.53197   1.00
H2       0.24043    0.42701    0.54334   1.00
C5       0.23330    0.87591    0.63227   1.00
H2       0.20802    0.86261    0.64755   1.00
H2       0.22076    0.89690    0.61099   1.00
C5       0.25935    0.89749    0.66219   1.00
H2       0.24729    0.92690    0.66890   1.00
H2       0.28943    0.90082    0.65040   1.00
O_3      0.31752    0.77115    0.48000   1.00
C4       0.24963    0.74975    0.52100   1.00
C3c      0.23859    0.78288    0.54243   1.00
H1       0.22973    0.80908    0.52725   1.00
C3d      0.26053    0.71573    0.54135   1.00
C3       0.23929    0.78301    0.58354   1.00
O2       0.22359    0.81476    0.60248   1.00
C3       0.26198    0.71600    0.58227   1.00
H1       0.27185    0.68968    0.59657   1.00
C2       0.25131    0.74940    0.60439   1.00
C5       0.34552    0.74095    0.47879   1.00
H2       0.35458    0.73380    0.44838   1.00
H2       0.33409    0.71380    0.49266   1.00
C5       0.38117    0.75480    0.50122   1.00
H2       0.37192    0.76299    0.53129   1.00
H2       0.39255    0.78170    0.48691   1.00
C5       0.41268    0.72304    0.50254   1.00
H2       0.42186    0.71452    0.47260   1.00
H2       0.40179    0.69665    0.51803   1.00
H2       0.43884    0.73399    0.51830   1.00
C5       0.24289    0.65916    0.51105   1.00
C5       0.25325    0.84224    0.61070   1.00
H2       0.22259    0.67448    0.49088   1.00
H2       0.22613    0.64918    0.53712   1.00
H2       0.26662    0.85293    0.58300   1.00
H2       0.27723    0.82968    0.62895   1.00
H2       0.26062    0.88140    0.69055   1.00
H2       0.21686    0.61758    0.44250   1.00
H2       0.20324    0.59331    0.48766   1.00
C2       0.25234    0.74893    0.39605   1.00
C3       0.21737    0.74010    0.41597   1.00
O2       0.18702    0.72194    0.39674   1.00
C3       0.28541    0.75979    0.41826   1.00
H1       0.31232    0.76770    0.40385   1.00
C3a      0.21649    0.74130    0.45713   1.00
H1       0.19016    0.73231    0.47202   1.00
C3b      0.28478    0.75974    0.45922   1.00
C4       0.25018    0.75038    0.47900   1.00
O_3      0.27447    0.68334    0.52167   1.00
C5       0.15779    0.74933    0.38720   1.00
H2       0.14592    0.76374    0.41391   1.00
C5       0.12507    0.72691    0.36666   1.00
H2       0.16938    0.77227    0.36726   1.00
H2       0.10702    0.71207    0.38923   1.00
H2       0.13896    0.70343    0.34899   1.00
C5       0.09940    0.75322    0.34069   1.00
H2       0.08829    0.77821    0.35811   1.00
H2       0.07408    0.73660    0.32891   1.00
H2       0.11604    0.76440    0.31494   1.00
C5       0.25962    0.62368    0.49020   1.00
H2       0.27438    0.60483    0.51218   1.00
H2       0.28257    0.63389    0.46955   1.00
C5       0.22802    0.60071    0.46803   1.00
H2       0.24043    0.57299    0.45666   1.00
C5       0.37591    1.13227    0.23330   1.00
H2       0.36261    1.14755    0.20802   1.00
H2       0.39690    1.11099    0.22076   1.00
C5       0.39749    1.16219    0.25935   1.00
H2       0.42690    1.16890    0.24729   1.00
H2       0.40082    1.15040    0.28943   1.00
O_3      0.27115    0.98000    0.31752   1.00
C4       0.24975    1.02100    0.24963   1.00
C3c      0.28288    1.04243    0.23859   1.00
H1       0.30908    1.02725    0.22973   1.00
C3d      0.21573    1.04135    0.26053   1.00
C3       0.28301    1.08354    0.23929   1.00
O2       0.31476    1.10248    0.22359   1.00
C3       0.21600    1.08227    0.26198   1.00
H1       0.18968    1.09657    0.27185   1.00
C2       0.24940    1.10439    0.25131   1.00
C5       0.24095    0.97879    0.34552   1.00
H2       0.23380    0.94838    0.35458   1.00
H2       0.21380    0.99266    0.33409   1.00
C5       0.25480    1.00122    0.38117   1.00
H2       0.26299    1.03129    0.37192   1.00
H2       0.28170    0.98691    0.39255   1.00
C5       0.22304    1.00254    0.41268   1.00
H2       0.21452    0.97260    0.42186   1.00
H2       0.19665    1.01803    0.40179   1.00
H2       0.23399    1.01830    0.43884   1.00
C5       0.15916    1.01105    0.24289   1.00
C5       0.34224    1.11070    0.25325   1.00
H2       0.17448    0.99088    0.22259   1.00
H2       0.14918    1.03712    0.22613   1.00
H2       0.35293    1.08300    0.26662   1.00
H2       0.32968    1.12895    0.27723   1.00
H2       0.38140    1.19055    0.26062   1.00
H2       0.11758    0.94250    0.21686   1.00
H2       0.09331    0.98766    0.20324   1.00
C2       0.24893    0.89605    0.25234   1.00
C3       0.24010    0.91597    0.21737   1.00
O2       0.22194    0.89674    0.18702   1.00
C3       0.25979    0.91826    0.28541   1.00
H1       0.26770    0.90385    0.31232   1.00
C3a      0.24130    0.95713    0.21649   1.00
H1       0.23231    0.97202    0.19016   1.00
C3b      0.25974    0.95922    0.28478   1.00
C4       0.25038    0.97900    0.25018   1.00
O_3      0.18334    1.02167    0.27447   1.00
C5       0.24933    0.88720    0.15779   1.00
H2       0.26374    0.91391    0.14592   1.00
C5       0.22691    0.86666    0.12507   1.00
H2       0.27227    0.86726    0.16938   1.00
H2       0.21207    0.88923    0.10702   1.00
H2       0.20343    0.84899    0.13896   1.00
C5       0.25322    0.84069    0.09940   1.00
H2       0.27821    0.85811    0.08829   1.00
H2       0.23660    0.82891    0.07408   1.00
H2       0.26440    0.81494    0.11604   1.00
C5       0.12368    0.99020    0.25962   1.00
H2       0.10483    1.01218    0.27438   1.00
H2       0.13389    0.96955    0.28257   1.00
C5       0.10071    0.96803    0.22802   1.00
H2       0.07299    0.95666    0.24043   1.00
C5       -0.13227   0.73330    0.12409   1.00
H2       -0.14755   0.70802    0.13739   1.00
H2       -0.11099   0.72076    0.10310   1.00
C5       -0.16219   0.75935    0.10251   1.00
H2       -0.16890   0.74729    0.07310   1.00
H2       -0.15040   0.78943    0.09918   1.00
O_3      0.02000    0.81752    0.22885   1.00
C4       -0.02100   0.74963    0.25025   1.00
C3c      -0.04243   0.73859    0.21712   1.00
H1       -0.02725   0.72973    0.19092   1.00
C3d      -0.04135   0.76053    0.28427   1.00
C3       -0.08354   0.73929    0.21699   1.00
O2       -0.10248   0.72359    0.18524   1.00
C3       -0.08227   0.76198    0.28400   1.00
H1       -0.09657   0.77185    0.31032   1.00
C2       -0.10439   0.75131    0.25060   1.00
C5       0.02121    0.84552    0.25905   1.00
H2       0.05162    0.85458    0.26620   1.00
H2       0.00734    0.83409    0.28620   1.00
C5       -0.00122   0.88117    0.24520   1.00
H2       -0.03129   0.87192    0.23701   1.00
H2       0.01309    0.89255    0.21830   1.00
C5       -0.00254   0.91268    0.27696   1.00
H2       0.02740    0.92186    0.28548   1.00
H2       -0.01803   0.90179    0.30335   1.00
H2       -0.01830   0.93884    0.26601   1.00
C5       -0.01105   0.74289    0.34084   1.00
C5       -0.11070   0.75325    0.15776   1.00
H2       0.00912    0.72259    0.32552   1.00
H2       -0.03712   0.72613    0.35082   1.00
H2       -0.08300   0.76662    0.14707   1.00
H2       -0.12895   0.77723    0.17032   1.00
H2       -0.19055   0.76062    0.11860   1.00
H2       0.05750    0.71686    0.38242   1.00
H2       0.01234    0.70324    0.40669   1.00
C2       0.10395    0.75234    0.25107   1.00
C3       0.08403    0.71737    0.25990   1.00
O2       0.10326    0.68702    0.27806   1.00
C3       0.08174    0.78541    0.24021   1.00
H1       0.09615    0.81232    0.23230   1.00
C3a      0.04287    0.71649    0.25870   1.00
H1       0.02798    0.69016    0.26769   1.00
C3b      0.04078    0.78478    0.24026   1.00
C4       0.02100    0.75018    0.24962   1.00
O_3      -0.02167   0.77447    0.31666   1.00
C5       0.11280    0.65779    0.25067   1.00
H2       0.08609    0.64592    0.23626   1.00
C5       0.13334    0.62507    0.27309   1.00
H2       0.13274    0.66938    0.22773   1.00
H2       0.11077    0.60702    0.28793   1.00
H2       0.15101    0.63896    0.29657   1.00
C5       0.15931    0.59940    0.24678   1.00
H2       0.14189    0.58829    0.22179   1.00
H2       0.17109    0.57408    0.26340   1.00
H2       0.18506    0.61604    0.23560   1.00
C5       0.00980    0.75962    0.37632   1.00
H2       -0.01218   0.77438    0.39517   1.00
H2       0.03045    0.78257    0.36611   1.00
C5       0.03197    0.72802    0.39929   1.00
H2       0.04334    0.74043    0.42701   1.00
C5       0.63227    0.73330    0.37591   1.00
H2       0.64755    0.70802    0.36261   1.00
H2       0.61099    0.72076    0.39690   1.00
C5       0.66219    0.75935    0.39749   1.00
H2       0.66890    0.74729    0.42690   1.00
H2       0.65040    0.78943    0.40082   1.00
O_3      0.48000    0.81752    0.27115   1.00
C4       0.52100    0.74963    0.24975   1.00
C3c      0.54243    0.73859    0.28288   1.00
H1       0.52725    0.72973    0.30908   1.00
C3d      0.54135    0.76053    0.21573   1.00
C3       0.58354    0.73929    0.28301   1.00
O2       0.60248    0.72359    0.31476   1.00
C3       0.58227    0.76198    0.21600   1.00
H1       0.59657    0.77185    0.18968   1.00
C2       0.60439    0.75131    0.24940   1.00
C5       0.47879    0.84552    0.24095   1.00
H2       0.44838    0.85458    0.23380   1.00
H2       0.49266    0.83409    0.21380   1.00
C5       0.50122    0.88117    0.25480   1.00
H2       0.53129    0.87192    0.26299   1.00
H2       0.48691    0.89255    0.28170   1.00
C5       0.50254    0.91268    0.22304   1.00
H2       0.47260    0.92186    0.21452   1.00
H2       0.51803    0.90179    0.19665   1.00
H2       0.51830    0.93884    0.23399   1.00
C5       0.51105    0.74289    0.15916   1.00
C5       0.61070    0.75325    0.34224   1.00
H2       0.49088    0.72259    0.17448   1.00
H2       0.53712    0.72613    0.14918   1.00
H2       0.58300    0.76662    0.35293   1.00
H2       0.62895    0.77723    0.32968   1.00
H2       0.69055    0.76062    0.38140   1.00
H2       0.44250    0.71686    0.11758   1.00
H2       0.48766    0.70324    0.09331   1.00
C2       0.39605    0.75234    0.24893   1.00
C3       0.41597    0.71737    0.24010   1.00
O2       0.39674    0.68702    0.22194   1.00
C3       0.41826    0.78541    0.25979   1.00
H1       0.40385    0.81232    0.26770   1.00
C3a      0.45713    0.71649    0.24130   1.00
H1       0.47202    0.69016    0.23231   1.00
C3b      0.45922    0.78478    0.25974   1.00
C4       0.47900    0.75018    0.25038   1.00
O_3      0.52167    0.77447    0.18334   1.00
C5       0.38720    0.65779    0.24933   1.00
H2       0.41391    0.64592    0.26374   1.00
C5       0.36666    0.62507    0.22691   1.00
H2       0.36726    0.66938    0.27227   1.00
H2       0.38923    0.60702    0.21207   1.00
H2       0.34899    0.63896    0.20343   1.00
C5       0.34069    0.59940    0.25322   1.00
H2       0.35811    0.58829    0.27821   1.00
H2       0.32891    0.57408    0.23660   1.00
H2       0.31494    0.61604    0.26440   1.00
C5       0.49020    0.75962    0.12368   1.00
H2       0.51218    0.77438    0.10483   1.00
H2       0.46955    0.78257    0.13389   1.00
C5       0.46803    0.72802    0.10071   1.00
H2       0.45666    0.74043    0.07299   1.00
C5       0.12409    0.36773    0.23330   1.00
H2       0.13739    0.35245    0.20802   1.00
H2       0.10310    0.38901    0.22076   1.00
C5       0.10251    0.33781    0.25935   1.00
H2       0.07310    0.33110    0.24729   1.00
H2       0.09918    0.34960    0.28943   1.00
O_3      0.22885    0.52000    0.31752   1.00
C4       0.25025    0.47900    0.24963   1.00
C3c      0.21712    0.45757    0.23859   1.00
H1       0.19092    0.47275    0.22973   1.00
C3d      0.28427    0.45865    0.26053   1.00
C3       0.21699    0.41646    0.23929   1.00
O2       0.18524    0.39752    0.22359   1.00
C3       0.28400    0.41773    0.26198   1.00
H1       0.31032    0.40343    0.27185   1.00
C2       0.25060    0.39561    0.25131   1.00
C5       0.25905    0.52121    0.34552   1.00
H2       0.26620    0.55162    0.35458   1.00
H2       0.28620    0.50734    0.33409   1.00
C5       0.24520    0.49878    0.38117   1.00
H2       0.23701    0.46871    0.37192   1.00
H2       0.21830    0.51309    0.39255   1.00
C5       0.27696    0.49746    0.41268   1.00
H2       0.28548    0.52740    0.42186   1.00
H2       0.30335    0.48197    0.40179   1.00
H2       0.26601    0.48170    0.43884   1.00
C5       0.34084    0.48895    0.24289   1.00
C5       0.15776    0.38930    0.25325   1.00
H2       0.32552    0.50912    0.22259   1.00
H2       0.35082    0.46288    0.22613   1.00
H2       0.14707    0.41700    0.26662   1.00
H2       0.17032    0.37105    0.27723   1.00
H2       0.11860    0.30945    0.26062   1.00
H2       0.38242    0.55750    0.21686   1.00
H2       0.40669    0.51234    0.20324   1.00
C2       0.25107    0.60395    0.25234   1.00
C3       0.25990    0.58403    0.21737   1.00
O2       0.27806    0.60326    0.18702   1.00
C3       0.24021    0.58174    0.28541   1.00
H1       0.23230    0.59615    0.31232   1.00
C3a      0.25870    0.54287    0.21649   1.00
H1       0.26769    0.52798    0.19016   1.00
C3b      0.24026    0.54078    0.28478   1.00
C4       0.24962    0.52100    0.25018   1.00
O_3      0.31666    0.47833    0.27447   1.00
C5       0.25067    0.61280    0.15779   1.00
H2       0.23626    0.58609    0.14592   1.00
C5       0.27309    0.63334    0.12507   1.00
H2       0.22773    0.63274    0.16938   1.00
H2       0.28793    0.61077    0.10702   1.00
H2       0.29657    0.65101    0.13896   1.00
C5       0.24678    0.65931    0.09940   1.00
H2       0.22179    0.64189    0.08829   1.00
H2       0.26340    0.67109    0.07408   1.00
H2       0.23560    0.68506    0.11604   1.00
C5       0.37632    0.50980    0.25962   1.00
H2       0.39517    0.48782    0.27438   1.00
H2       0.36611    0.53045    0.28257   1.00
C5       0.39929    0.53197    0.22802   1.00
H2       0.42701    0.54334    0.24043   1.00
C5       0.23330    0.62409    -0.13227   1.00
H2       0.20802    0.63739    -0.14755   1.00
H2       0.22076    0.60310    -0.11099   1.00
C5       0.25935    0.60251    -0.16219   1.00
H2       0.24729    0.57310    -0.16890   1.00
H2       0.28943    0.59918    -0.15040   1.00
O_3      0.31752    0.72885    0.02000   1.00
C4       0.24963    0.75025    -0.02100   1.00
C3c      0.23859    0.71712    -0.04243   1.00
H1       0.22973    0.69092    -0.02725   1.00
C3d      0.26053    0.78427    -0.04135   1.00
C3       0.23929    0.71699    -0.08354   1.00
O2       0.22359    0.68524    -0.10248   1.00
C3       0.26198    0.78400    -0.08227   1.00
H1       0.27185    0.81032    -0.09657   1.00
C2       0.25131    0.75060    -0.10439   1.00
C5       0.34552    0.75905    0.02121   1.00
H2       0.35458    0.76620    0.05162   1.00
H2       0.33409    0.78620    0.00734   1.00
C5       0.38117    0.74520    -0.00122   1.00
H2       0.37192    0.73701    -0.03129   1.00
H2       0.39255    0.71830    0.01309   1.00
C5       0.41268    0.77696    -0.00254   1.00
H2       0.42186    0.78548    0.02740   1.00
H2       0.40179    0.80335    -0.01803   1.00
H2       0.43884    0.76601    -0.01830   1.00
C5       0.24289    0.84084    -0.01105   1.00
C5       0.25325    0.65776    -0.11070   1.00
H2       0.22259    0.82552    0.00912   1.00
H2       0.22613    0.85082    -0.03712   1.00
H2       0.26662    0.64707    -0.08300   1.00
H2       0.27723    0.67032    -0.12895   1.00
H2       0.26062    0.61860    -0.19055   1.00
H2       0.21686    0.88242    0.05750   1.00
H2       0.20324    0.90669    0.01234   1.00
C2       0.25234    0.75107    0.10395   1.00
C3       0.21737    0.75990    0.08403   1.00
O2       0.18702    0.77806    0.10326   1.00
C3       0.28541    0.74021    0.08174   1.00
H1       0.31232    0.73230    0.09615   1.00
C3a      0.21649    0.75870    0.04287   1.00
H1       0.19016    0.76769    0.02798   1.00
C3b      0.28478    0.74026    0.04078   1.00
C4       0.25018    0.74962    0.02100   1.00
O_3      0.27447    0.81666    -0.02167   1.00
C5       0.15779    0.75067    0.11280   1.00
H2       0.14592    0.73626    0.08609   1.00
C5       0.12507    0.77309    0.13334   1.00
H2       0.16938    0.72773    0.13274   1.00
H2       0.10702    0.78793    0.11077   1.00
H2       0.13896    0.79657    0.15101   1.00
C5       0.09940    0.74678    0.15931   1.00
H2       0.08829    0.72179    0.14189   1.00
H2       0.07408    0.76340    0.17109   1.00
H2       0.11604    0.73560    0.18506   1.00
C5       0.25962    0.87632    0.00980   1.00
H2       0.27438    0.89517    -0.01218   1.00
H2       0.28257    0.86611    0.03045   1.00
C5       0.22802    0.89929    0.03197   1.00
H2       0.24043    0.92701    0.04334   1.00
C5       0.73330    0.37591    0.63227   1.00
H2       0.70802    0.36261    0.64755   1.00
H2       0.72076    0.39690    0.61099   1.00
C5       0.75935    0.39749    0.66219   1.00
H2       0.74729    0.42690    0.66890   1.00
H2       0.78943    0.40082    0.65040   1.00
O_3      0.81752    0.27115    0.48000   1.00
C4       0.74963    0.24975    0.52100   1.00
C3c      0.73859    0.28288    0.54243   1.00
H1       0.72973    0.30908    0.52725   1.00
C3d      0.76053    0.21573    0.54135   1.00
C3       0.73929    0.28301    0.58354   1.00
O2       0.72359    0.31476    0.60248   1.00
C3       0.76198    0.21600    0.58227   1.00
H1       0.77185    0.18968    0.59657   1.00
C2       0.75131    0.24940    0.60439   1.00
C5       0.84552    0.24095    0.47879   1.00
H2       0.85458    0.23380    0.44838   1.00
H2       0.83409    0.21380    0.49266   1.00
C5       0.88117    0.25480    0.50122   1.00
H2       0.87192    0.26299    0.53129   1.00
H2       0.89255    0.28170    0.48691   1.00
C5       0.91268    0.22304    0.50254   1.00
H2       0.92186    0.21452    0.47260   1.00
H2       0.90179    0.19665    0.51803   1.00
H2       0.93884    0.23399    0.51830   1.00
C5       0.74289    0.15916    0.51105   1.00
C5       0.75325    0.34224    0.61070   1.00
H2       0.72259    0.17448    0.49088   1.00
H2       0.72613    0.14918    0.53712   1.00
H2       0.76662    0.35293    0.58300   1.00
H2       0.77723    0.32968    0.62895   1.00
H2       0.76062    0.38140    0.69055   1.00
H2       0.71686    0.11758    0.44250   1.00
H2       0.70324    0.09331    0.48766   1.00
C2       0.75234    0.24893    0.39605   1.00
C3       0.71737    0.24010    0.41597   1.00
O2       0.68702    0.22194    0.39674   1.00
C3       0.78541    0.25979    0.41826   1.00
H1       0.81232    0.26770    0.40385   1.00
C3a      0.71649    0.24130    0.45713   1.00
H1       0.69016    0.23231    0.47202   1.00
C3b      0.78478    0.25974    0.45922   1.00
C4       0.75018    0.25038    0.47900   1.00
O_3      0.77447    0.18334    0.52167   1.00
C5       0.65779    0.24933    0.38720   1.00
H2       0.64592    0.26374    0.41391   1.00
C5       0.62507    0.22691    0.36666   1.00
H2       0.66938    0.27227    0.36726   1.00
H2       0.60702    0.21207    0.38923   1.00
H2       0.63896    0.20343    0.34899   1.00
C5       0.59940    0.25322    0.34069   1.00
H2       0.58829    0.27821    0.35811   1.00
H2       0.57408    0.23660    0.32891   1.00
H2       0.61604    0.26440    0.31494   1.00
C5       0.75962    0.12368    0.49020   1.00
H2       0.77438    0.10483    0.51218   1.00
H2       0.78257    0.13389    0.46955   1.00
C5       0.72802    0.10071    0.46803   1.00
H2       0.74043    0.07299    0.45666   1.00
C5       0.87591    0.63227    0.23330   1.00
H2       0.86261    0.64755    0.20802   1.00
H2       0.89690    0.61099    0.22076   1.00
C5       0.89749    0.66219    0.25935   1.00
H2       0.92690    0.66890    0.24729   1.00
H2       0.90082    0.65040    0.28943   1.00
O_3      0.77115    0.48000    0.31752   1.00
C4       0.74975    0.52100    0.24963   1.00
C3c      0.78288    0.54243    0.23859   1.00
H1       0.80908    0.52725    0.22973   1.00
C3d      0.71573    0.54135    0.26053   1.00
C3       0.78301    0.58354    0.23929   1.00
O2       0.81476    0.60248    0.22359   1.00
C3       0.71600    0.58227    0.26198   1.00
H1       0.68968    0.59657    0.27185   1.00
C2       0.74940    0.60439    0.25131   1.00
C5       0.74095    0.47879    0.34552   1.00
H2       0.73380    0.44838    0.35458   1.00
H2       0.71380    0.49266    0.33409   1.00
C5       0.75480    0.50122    0.38117   1.00
H2       0.76299    0.53129    0.37192   1.00
H2       0.78170    0.48691    0.39255   1.00
C5       0.72304    0.50254    0.41268   1.00
H2       0.71452    0.47260    0.42186   1.00
H2       0.69665    0.51803    0.40179   1.00
H2       0.73399    0.51830    0.43884   1.00
C5       0.65916    0.51105    0.24289   1.00
C5       0.84224    0.61070    0.25325   1.00
H2       0.67448    0.49088    0.22259   1.00
H2       0.64918    0.53712    0.22613   1.00
H2       0.85293    0.58300    0.26662   1.00
H2       0.82968    0.62895    0.27723   1.00
H2       0.88140    0.69055    0.26062   1.00
H2       0.61758    0.44250    0.21686   1.00
H2       0.59331    0.48766    0.20324   1.00
C2       0.74893    0.39605    0.25234   1.00
C3       0.74010    0.41597    0.21737   1.00
O2       0.72194    0.39674    0.18702   1.00
C3       0.75979    0.41826    0.28541   1.00
H1       0.76770    0.40385    0.31232   1.00
C3a      0.74130    0.45713    0.21649   1.00
H1       0.73231    0.47202    0.19016   1.00
C3b      0.75974    0.45922    0.28478   1.00
C4       0.75038    0.47900    0.25018   1.00
O_3      0.68334    0.52167    0.27447   1.00
C5       0.74933    0.38720    0.15779   1.00
H2       0.76374    0.41391    0.14592   1.00
C5       0.72691    0.36666    0.12507   1.00
H2       0.77227    0.36726    0.16938   1.00
H2       0.71207    0.38923    0.10702   1.00
H2       0.70343    0.34899    0.13896   1.00
C5       0.75322    0.34069    0.09940   1.00
H2       0.77821    0.35811    0.08829   1.00
H2       0.73660    0.32891    0.07408   1.00
H2       0.76440    0.31494    0.11604   1.00
C5       0.62368    0.49020    0.25962   1.00
H2       0.60483    0.51218    0.27438   1.00
H2       0.63389    0.46955    0.28257   1.00
C5       0.60071    0.46803    0.22802   1.00
H2       0.57299    0.45666    0.24043   1.00
C5       0.36773    0.23330    0.12409   1.00
H2       0.35245    0.20802    0.13739   1.00
H2       0.38901    0.22076    0.10310   1.00
C5       0.33781    0.25935    0.10251   1.00
H2       0.33110    0.24729    0.07310   1.00
H2       0.34960    0.28943    0.09918   1.00
O_3      0.52000    0.31752    0.22885   1.00
C4       0.47900    0.24963    0.25025   1.00
C3c      0.45757    0.23859    0.21712   1.00
H1       0.47275    0.22973    0.19092   1.00
C3d      0.45865    0.26053    0.28427   1.00
C3       0.41646    0.23929    0.21699   1.00
O2       0.39752    0.22359    0.18524   1.00
C3       0.41773    0.26198    0.28400   1.00
H1       0.40343    0.27185    0.31032   1.00
C2       0.39561    0.25131    0.25060   1.00
C5       0.52121    0.34552    0.25905   1.00
H2       0.55162    0.35458    0.26620   1.00
H2       0.50734    0.33409    0.28620   1.00
C5       0.49878    0.38117    0.24520   1.00
H2       0.46871    0.37192    0.23701   1.00
H2       0.51309    0.39255    0.21830   1.00
C5       0.49746    0.41268    0.27696   1.00
H2       0.52740    0.42186    0.28548   1.00
H2       0.48197    0.40179    0.30335   1.00
H2       0.48170    0.43884    0.26601   1.00
C5       0.48895    0.24289    0.34084   1.00
C5       0.38930    0.25325    0.15776   1.00
H2       0.50912    0.22259    0.32552   1.00
H2       0.46288    0.22613    0.35082   1.00
H2       0.41700    0.26662    0.14707   1.00
H2       0.37105    0.27723    0.17032   1.00
H2       0.30945    0.26062    0.11860   1.00
H2       0.55750    0.21686    0.38242   1.00
H2       0.51234    0.20324    0.40669   1.00
C2       0.60395    0.25234    0.25107   1.00
C3       0.58403    0.21737    0.25990   1.00
O2       0.60326    0.18702    0.27806   1.00
C3       0.58174    0.28541    0.24021   1.00
H1       0.59615    0.31232    0.23230   1.00
C3a      0.54287    0.21649    0.25870   1.00
H1       0.52798    0.19016    0.26769   1.00
C3b      0.54078    0.28478    0.24026   1.00
C4       0.52100    0.25018    0.24962   1.00
O_3      0.47833    0.27447    0.31666   1.00
C5       0.61280    0.15779    0.25067   1.00
H2       0.58609    0.14592    0.23626   1.00
C5       0.63334    0.12507    0.27309   1.00
H2       0.63274    0.16938    0.22773   1.00
H2       0.61077    0.10702    0.28793   1.00
H2       0.65101    0.13896    0.29657   1.00
C5       0.65931    0.09940    0.24678   1.00
H2       0.64189    0.08829    0.22179   1.00
H2       0.67109    0.07408    0.26340   1.00
H2       0.68506    0.11604    0.23560   1.00
C5       0.50980    0.25962    0.37632   1.00
H2       0.48782    0.27438    0.39517   1.00
H2       0.53045    0.28257    0.36611   1.00
C5       0.53197    0.22802    0.39929   1.00
H2       0.54334    0.24043    0.42701   1.00
C5       1.13227    0.23330    0.37591   1.00
H2       1.14755    0.20802    0.36261   1.00
H2       1.11099    0.22076    0.39690   1.00
C5       1.16219    0.25935    0.39749   1.00
H2       1.16890    0.24729    0.42690   1.00
H2       1.15040    0.28943    0.40082   1.00
O_3      0.98000    0.31752    0.27115   1.00
C4       1.02100    0.24963    0.24975   1.00
C3c      1.04243    0.23859    0.28288   1.00
H1       1.02725    0.22973    0.30908   1.00
C3d      1.04135    0.26053    0.21573   1.00
C3       1.08354    0.23929    0.28301   1.00
O2       1.10248    0.22359    0.31476   1.00
C3       1.08227    0.26198    0.21600   1.00
H1       1.09657    0.27185    0.18968   1.00
C2       1.10439    0.25131    0.24940   1.00
C5       0.97879    0.34552    0.24095   1.00
H2       0.94838    0.35458    0.23380   1.00
H2       0.99266    0.33409    0.21380   1.00
C5       1.00122    0.38117    0.25480   1.00
H2       1.03129    0.37192    0.26299   1.00
H2       0.98691    0.39255    0.28170   1.00
C5       1.00254    0.41268    0.22304   1.00
H2       0.97260    0.42186    0.21452   1.00
H2       1.01803    0.40179    0.19665   1.00
H2       1.01830    0.43884    0.23399   1.00
C5       1.01105    0.24289    0.15916   1.00
C5       1.11070    0.25325    0.34224   1.00
H2       0.99088    0.22259    0.17448   1.00
H2       1.03712    0.22613    0.14918   1.00
H2       1.08300    0.26662    0.35293   1.00
H2       1.12895    0.27723    0.32968   1.00
H2       1.19055    0.26062    0.38140   1.00
H2       0.94250    0.21686    0.11758   1.00
H2       0.98766    0.20324    0.09331   1.00
C2       0.89605    0.25234    0.24893   1.00
C3       0.91597    0.21737    0.24010   1.00
O2       0.89674    0.18702    0.22194   1.00
C3       0.91826    0.28541    0.25979   1.00
H1       0.90385    0.31232    0.26770   1.00
C3a      0.95713    0.21649    0.24130   1.00
H1       0.97202    0.19016    0.23231   1.00
C3b      0.95922    0.28478    0.25974   1.00
C4       0.97900    0.25018    0.25038   1.00
O_3      1.02167    0.27447    0.18334   1.00
C5       0.88720    0.15779    0.24933   1.00
H2       0.91391    0.14592    0.26374   1.00
C5       0.86666    0.12507    0.22691   1.00
H2       0.86726    0.16938    0.27227   1.00
H2       0.88923    0.10702    0.21207   1.00
H2       0.84899    0.13896    0.20343   1.00
C5       0.84069    0.09940    0.25322   1.00
H2       0.85811    0.08829    0.27821   1.00
H2       0.82891    0.07408    0.23660   1.00
H2       0.81494    0.11604    0.26440   1.00
C5       0.99020    0.25962    0.12368   1.00
H2       1.01218    0.27438    0.10483   1.00
H2       0.96955    0.28257    0.13389   1.00
C5       0.96803    0.22802    0.10071   1.00
H2       0.95666    0.24043    0.07299   1.00
C5       0.62409    -0.13227   0.23330   1.00
H2       0.63739    -0.14755   0.20802   1.00
H2       0.60310    -0.11099   0.22076   1.00
C5       0.60251    -0.16219   0.25935   1.00
H2       0.57310    -0.16890   0.24729   1.00
H2       0.59918    -0.15040   0.28943   1.00
O_3      0.72885    0.02000    0.31752   1.00
C4       0.75025    -0.02100   0.24963   1.00
C3c      0.71712    -0.04243   0.23859   1.00
H1       0.69092    -0.02725   0.22973   1.00
C3d      0.78427    -0.04135   0.26053   1.00
C3       0.71699    -0.08354   0.23929   1.00
O2       0.68524    -0.10248   0.22359   1.00
C3       0.78400    -0.08227   0.26198   1.00
H1       0.81032    -0.09657   0.27185   1.00
C2       0.75060    -0.10439   0.25131   1.00
C5       0.75905    0.02121    0.34552   1.00
H2       0.76620    0.05162    0.35458   1.00
H2       0.78620    0.00734    0.33409   1.00
C5       0.74520    -0.00122   0.38117   1.00
H2       0.73701    -0.03129   0.37192   1.00
H2       0.71830    0.01309    0.39255   1.00
C5       0.77696    -0.00254   0.41268   1.00
H2       0.78548    0.02740    0.42186   1.00
H2       0.80335    -0.01803   0.40179   1.00
H2       0.76601    -0.01830   0.43884   1.00
C5       0.84084    -0.01105   0.24289   1.00
C5       0.65776    -0.11070   0.25325   1.00
H2       0.82552    0.00912    0.22259   1.00
H2       0.85082    -0.03712   0.22613   1.00
H2       0.64707    -0.08300   0.26662   1.00
H2       0.67032    -0.12895   0.27723   1.00
H2       0.61860    -0.19055   0.26062   1.00
H2       0.88242    0.05750    0.21686   1.00
H2       0.90669    0.01234    0.20324   1.00
C2       0.75107    0.10395    0.25234   1.00
C3       0.75990    0.08403    0.21737   1.00
O2       0.77806    0.10326    0.18702   1.00
C3       0.74021    0.08174    0.28541   1.00
H1       0.73230    0.09615    0.31232   1.00
C3a      0.75870    0.04287    0.21649   1.00
H1       0.76769    0.02798    0.19016   1.00
C3b      0.74026    0.04078    0.28478   1.00
C4       0.74962    0.02100    0.25018   1.00
O_3      0.81666    -0.02167   0.27447   1.00
C5       0.75067    0.11280    0.15779   1.00
H2       0.73626    0.08609    0.14592   1.00
C5       0.77309    0.13334    0.12507   1.00
H2       0.72773    0.13274    0.16938   1.00
H2       0.78793    0.11077    0.10702   1.00
H2       0.79657    0.15101    0.13896   1.00
C5       0.74678    0.15931    0.09940   1.00
H2       0.72179    0.14189    0.08829   1.00
H2       0.76340    0.17109    0.07408   1.00
H2       0.73560    0.18506    0.11604   1.00
C5       0.87632    0.00980    0.25962   1.00
H2       0.89517    -0.01218   0.27438   1.00
H2       0.86611    0.03045    0.28257   1.00
C5       0.89929    0.03197    0.22802   1.00
H2       0.92701    0.04334    0.24043   1.00
C5       0.73330    0.12409    -0.13227   1.00
H2       0.70802    0.13739    -0.14755   1.00
H2       0.72076    0.10310    -0.11099   1.00
C5       0.75935    0.10251    -0.16219   1.00
H2       0.74729    0.07310    -0.16890   1.00
H2       0.78943    0.09918    -0.15040   1.00
O_3      0.81752    0.22885    0.02000   1.00
C4       0.74963    0.25025    -0.02100   1.00
C3c      0.73859    0.21712    -0.04243   1.00
H1       0.72973    0.19092    -0.02725   1.00
C3d      0.76053    0.28427    -0.04135   1.00
C3       0.73929    0.21699    -0.08354   1.00
O2       0.72359    0.18524    -0.10248   1.00
C3       0.76198    0.28400    -0.08227   1.00
H1       0.77185    0.31032    -0.09657   1.00
C2       0.75131    0.25060    -0.10439   1.00
C5       0.84552    0.25905    0.02121   1.00
H2       0.85458    0.26620    0.05162   1.00
H2       0.83409    0.28620    0.00734   1.00
C5       0.88117    0.24520    -0.00122   1.00
H2       0.87192    0.23701    -0.03129   1.00
H2       0.89255    0.21830    0.01309   1.00
C5       0.91268    0.27696    -0.00254   1.00
H2       0.92186    0.28548    0.02740   1.00
H2       0.90179    0.30335    -0.01803   1.00
H2       0.93884    0.26601    -0.01830   1.00
C5       0.74289    0.34084    -0.01105   1.00
C5       0.75325    0.15776    -0.11070   1.00
H2       0.72259    0.32552    0.00912   1.00
H2       0.72613    0.35082    -0.03712   1.00
H2       0.76662    0.14707    -0.08300   1.00
H2       0.77723    0.17032    -0.12895   1.00
H2       0.76062    0.11860    -0.19055   1.00
H2       0.71686    0.38242    0.05750   1.00
H2       0.70324    0.40669    0.01234   1.00
C2       0.75234    0.25107    0.10395   1.00
C3       0.71737    0.25990    0.08403   1.00
O2       0.68702    0.27806    0.10326   1.00
C3       0.78541    0.24021    0.08174   1.00
H1       0.81232    0.23230    0.09615   1.00
C3a      0.71649    0.25870    0.04287   1.00
H1       0.69016    0.26769    0.02798   1.00
C3b      0.78478    0.24026    0.04078   1.00
C4       0.75018    0.24962    0.02100   1.00
O_3      0.77447    0.31666    -0.02167   1.00
C5       0.65779    0.25067    0.11280   1.00
H2       0.64592    0.23626    0.08609   1.00
C5       0.62507    0.27309    0.13334   1.00
H2       0.66938    0.22773    0.13274   1.00
H2       0.60702    0.28793    0.11077   1.00
H2       0.63896    0.29657    0.15101   1.00
C5       0.59940    0.24678    0.15931   1.00
H2       0.58829    0.22179    0.14189   1.00
H2       0.57408    0.26340    0.17109   1.00
H2       0.61604    0.23560    0.18506   1.00
C5       0.75962    0.37632    0.00980   1.00
H2       0.77438    0.39517    -0.01218   1.00
H2       0.78257    0.36611    0.03045   1.00
C5       0.72802    0.39929    0.03197   1.00
H2       0.74043    0.42701    0.04334   1.00
