data_IRMOF10_SG202_Ligand10_label_v.

_audit_creation_method             'generated by an auxiliary program of Tobunporous'

_symmetry_space_group_name_H-M     'P 1'
_symmetry_Int_Tables_number        1
_symmetry_cell_setting             triclinic

_cell_length_a                    34.2800
_cell_length_b                    34.2800
_cell_length_c                    34.2800
_cell_angle_alpha                 90.0000
_cell_angle_beta                  90.0000
_cell_angle_gamma                 90.0000

loop_
_atom_site_label
_atom_site_fract_x
_atom_site_fract_y
_atom_site_fract_z
_atom_site_occupancy
O1       0.75000    0.75000    0.75000   1.00
Zn1      0.71720    0.78280    0.78280   1.00
Zn1      0.78280    0.71720    0.78280   1.00
Zn1      0.78280    0.78280    0.71720   1.00
Zn1      0.71720    0.71720    0.71720   1.00
O2       0.72650    0.77350    0.83820   1.00
O2       0.72650    0.83820    0.77350   1.00
O2       0.66180    0.77350    0.77350   1.00
O2       0.77350    0.72650    0.83820   1.00
O2       0.83820    0.72650    0.77350   1.00
O2       0.77350    0.66180    0.77350   1.00
O2       0.77350    0.83820    0.72650   1.00
O2       0.83820    0.77350    0.72650   1.00
O2       0.77350    0.77350    0.66180   1.00
O2       0.66180    0.72650    0.72650   1.00
O2       0.72650    0.66180    0.72650   1.00
O2       0.72650    0.72650    0.66180   1.00
C1       0.75000    0.75000    0.85520   1.00
C1       0.75000    0.85520    0.75000   1.00
C1       0.64480    0.75000    0.75000   1.00
C1       0.85520    0.75000    0.75000   1.00
C1       0.75000    0.64480    0.75000   1.00
C1       0.75000    0.75000    0.64480   1.00
O1       0.25000    0.25000    0.75000   1.00
Zn1      0.21720    0.28280    0.78280   1.00
Zn1      0.28280    0.21720    0.78280   1.00
Zn1      0.28280    0.28280    0.71720   1.00
Zn1      0.21720    0.21720    0.71720   1.00
O2       0.22650    0.27350    0.83820   1.00
O2       0.22650    0.33820    0.77350   1.00
O2       0.16180    0.27350    0.77350   1.00
O2       0.27350    0.22650    0.83820   1.00
O2       0.33820    0.22650    0.77350   1.00
O2       0.27350    0.16180    0.77350   1.00
O2       0.27350    0.33820    0.72650   1.00
O2       0.33820    0.27350    0.72650   1.00
O2       0.27350    0.27350    0.66180   1.00
O2       0.16180    0.22650    0.72650   1.00
O2       0.22650    0.16180    0.72650   1.00
O2       0.22650    0.22650    0.66180   1.00
C1       0.25000    0.25000    0.85520   1.00
C1       0.25000    0.35520    0.75000   1.00
C1       0.14480    0.25000    0.75000   1.00
C1       0.35520    0.25000    0.75000   1.00
C1       0.25000    0.14480    0.75000   1.00
C1       0.25000    0.25000    0.64480   1.00
O1       0.25000    0.75000    0.25000   1.00
Zn1      0.21720    0.78280    0.28280   1.00
Zn1      0.28280    0.71720    0.28280   1.00
Zn1      0.28280    0.78280    0.21720   1.00
Zn1      0.21720    0.71720    0.21720   1.00
O2       0.22650    0.77350    0.33820   1.00
O2       0.22650    0.83820    0.27350   1.00
O2       0.16180    0.77350    0.27350   1.00
O2       0.27350    0.72650    0.33820   1.00
O2       0.33820    0.72650    0.27350   1.00
O2       0.27350    0.66180    0.27350   1.00
O2       0.27350    0.83820    0.22650   1.00
O2       0.33820    0.77350    0.22650   1.00
O2       0.27350    0.77350    0.16180   1.00
O2       0.16180    0.72650    0.22650   1.00
O2       0.22650    0.66180    0.22650   1.00
O2       0.22650    0.72650    0.16180   1.00
C1       0.25000    0.75000    0.35520   1.00
C1       0.25000    0.85520    0.25000   1.00
C1       0.14480    0.75000    0.25000   1.00
C1       0.35520    0.75000    0.25000   1.00
C1       0.25000    0.64480    0.25000   1.00
C1       0.25000    0.75000    0.14480   1.00
O1       0.75000    0.25000    0.25000   1.00
Zn1      0.71720    0.28280    0.28280   1.00
Zn1      0.78280    0.21720    0.28280   1.00
Zn1      0.78280    0.28280    0.21720   1.00
Zn1      0.71720    0.21720    0.21720   1.00
O2       0.72650    0.27350    0.33820   1.00
O2       0.72650    0.33820    0.27350   1.00
O2       0.66180    0.27350    0.27350   1.00
O2       0.77350    0.22650    0.33820   1.00
O2       0.83820    0.22650    0.27350   1.00
O2       0.77350    0.16180    0.27350   1.00
O2       0.77350    0.33820    0.22650   1.00
O2       0.83820    0.27350    0.22650   1.00
O2       0.77350    0.27350    0.16180   1.00
O2       0.66180    0.22650    0.22650   1.00
O2       0.72650    0.16180    0.22650   1.00
O2       0.72650    0.22650    0.16180   1.00
C1       0.75000    0.25000    0.35520   1.00
C1       0.75000    0.35520    0.25000   1.00
C1       0.64480    0.25000    0.25000   1.00
C1       0.85520    0.25000    0.25000   1.00
C1       0.75000    0.14480    0.25000   1.00
C1       0.75000    0.25000    0.14480   1.00
O1       0.25000    0.25000    0.25000   1.00
Zn1      0.28280    0.21720    0.21720   1.00
Zn1      0.21720    0.28280    0.21720   1.00
Zn1      0.21720    0.21720    0.28280   1.00
Zn1      0.28280    0.28280    0.28280   1.00
O2       0.27350    0.22650    0.16180   1.00
O2       0.27350    0.16180    0.22650   1.00
O2       0.33820    0.22650    0.22650   1.00
O2       0.22650    0.27350    0.16180   1.00
O2       0.16180    0.27350    0.22650   1.00
O2       0.22650    0.33820    0.22650   1.00
O2       0.22650    0.16180    0.27350   1.00
O2       0.16180    0.22650    0.27350   1.00
O2       0.22650    0.22650    0.33820   1.00
O2       0.33820    0.27350    0.27350   1.00
O2       0.27350    0.33820    0.27350   1.00
O2       0.27350    0.27350    0.33820   1.00
C1       0.25000    0.25000    0.14480   1.00
C1       0.25000    0.14480    0.25000   1.00
C1       0.35520    0.25000    0.25000   1.00
C1       0.14480    0.25000    0.25000   1.00
C1       0.25000    0.35520    0.25000   1.00
C1       0.25000    0.25000    0.35520   1.00
O1       0.75000    0.75000    0.25000   1.00
Zn1      0.78280    0.71720    0.21720   1.00
Zn1      0.71720    0.78280    0.21720   1.00
Zn1      0.71720    0.71720    0.28280   1.00
Zn1      0.78280    0.78280    0.28280   1.00
O2       0.77350    0.72650    0.16180   1.00
O2       0.77350    0.66180    0.22650   1.00
O2       0.83820    0.72650    0.22650   1.00
O2       0.72650    0.77350    0.16180   1.00
O2       0.66180    0.77350    0.22650   1.00
O2       0.72650    0.83820    0.22650   1.00
O2       0.72650    0.66180    0.27350   1.00
O2       0.66180    0.72650    0.27350   1.00
O2       0.72650    0.72650    0.33820   1.00
O2       0.83820    0.77350    0.27350   1.00
O2       0.77350    0.83820    0.27350   1.00
O2       0.77350    0.77350    0.33820   1.00
C1       0.75000    0.75000    0.14480   1.00
C1       0.75000    0.64480    0.25000   1.00
C1       0.85520    0.75000    0.25000   1.00
C1       0.64480    0.75000    0.25000   1.00
C1       0.75000    0.85520    0.25000   1.00
C1       0.75000    0.75000    0.35520   1.00
O1       0.75000    0.25000    0.75000   1.00
Zn1      0.78280    0.21720    0.71720   1.00
Zn1      0.71720    0.28280    0.71720   1.00
Zn1      0.71720    0.21720    0.78280   1.00
Zn1      0.78280    0.28280    0.78280   1.00
O2       0.77350    0.22650    0.66180   1.00
O2       0.77350    0.16180    0.72650   1.00
O2       0.83820    0.22650    0.72650   1.00
O2       0.72650    0.27350    0.66180   1.00
O2       0.66180    0.27350    0.72650   1.00
O2       0.72650    0.33820    0.72650   1.00
O2       0.72650    0.16180    0.77350   1.00
O2       0.66180    0.22650    0.77350   1.00
O2       0.72650    0.22650    0.83820   1.00
O2       0.83820    0.27350    0.77350   1.00
O2       0.77350    0.33820    0.77350   1.00
O2       0.77350    0.27350    0.83820   1.00
C1       0.75000    0.25000    0.64480   1.00
C1       0.75000    0.14480    0.75000   1.00
C1       0.85520    0.25000    0.75000   1.00
C1       0.64480    0.25000    0.75000   1.00
C1       0.75000    0.35520    0.75000   1.00
C1       0.75000    0.25000    0.85520   1.00
O1       0.25000    0.75000    0.75000   1.00
Zn1      0.28280    0.71720    0.71720   1.00
Zn1      0.21720    0.78280    0.71720   1.00
Zn1      0.21720    0.71720    0.78280   1.00
Zn1      0.28280    0.78280    0.78280   1.00
O2       0.27350    0.72650    0.66180   1.00
O2       0.27350    0.66180    0.72650   1.00
O2       0.33820    0.72650    0.72650   1.00
O2       0.22650    0.77350    0.66180   1.00
O2       0.16180    0.77350    0.72650   1.00
O2       0.22650    0.83820    0.72650   1.00
O2       0.22650    0.66180    0.77350   1.00
O2       0.16180    0.72650    0.77350   1.00
O2       0.22650    0.72650    0.83820   1.00
O2       0.33820    0.77350    0.77350   1.00
O2       0.27350    0.83820    0.77350   1.00
O2       0.27350    0.77350    0.83820   1.00
C1       0.25000    0.75000    0.64480   1.00
C1       0.25000    0.64480    0.75000   1.00
C1       0.35520    0.75000    0.75000   1.00
C1       0.14480    0.75000    0.75000   1.00
C1       0.25000    0.85520    0.75000   1.00
C1       0.25000    0.75000    0.85520   1.00
C4       0.74964    0.74987    0.97915   1.00
C4       0.75036    0.75013    1.02085   1.00
C3       0.72610    0.77602    0.95751   1.00
C3       0.74961    0.78526    1.04252   1.00
C3       0.77321    0.72385    0.95738   1.00
C3       0.75097    0.71502    1.04259   1.00
C2       0.74994    0.75015    0.89482   1.00
C2       0.74994    0.75015    1.10518   1.00
C3a      0.72613    0.77627    0.91599   1.00
C3       0.74942    0.78519    1.08382   1.00
C3       0.77332    0.72405    0.91611   1.00
C3a      0.75079    0.71482    1.08403   1.00
H1       0.70733    0.79619    0.97294   1.00
H1       0.74953    0.81305    1.02750   1.00
C5       0.70054    0.80443    0.89410   1.00
H1       0.74889    0.81271    1.09933   1.00
H1       0.79200    0.70388    0.90056   1.00
C5       0.75151    0.67643    1.10535   1.00
H1       0.75044    0.68731    1.02747   1.00
H1       0.79238    0.70366    0.97230   1.00
H2       0.77931    0.66124    1.09837   1.00
H2       0.75086    0.68090    1.13747   1.00
N1       0.71818    0.65233    1.09395   1.00
C6       0.71104    0.63794    1.05810   1.00
C6       0.68922    0.64016    1.11757   1.00
C6       0.67701    0.61646    1.05873   1.00
C6       0.66313    0.61788    1.09656   1.00
H3       0.72940    0.64265    1.03281   1.00
H3       0.68704    0.64715    1.14831   1.00
H3       0.66380    0.60139    1.03436   1.00
H3       0.63694    0.60419    1.10758   1.00
H2       0.70526    0.80035    0.86228   1.00
H2       0.66917    0.79875    0.90001   1.00
N1       0.70971    0.84450    0.90523   1.00
C6       0.72373    0.87483    0.88078   1.00
C6       0.70625    0.86150    0.94285   1.00
C6       0.72848    0.90825    0.90277   1.00
C6       0.71776    0.90006    0.94091   1.00
H3       0.72976    0.87192    0.84992   1.00
H3       0.69652    0.84627    0.96876   1.00
H3       0.73886    0.93604    0.89205   1.00
H3       0.71839    0.92035    0.96505   1.00
C4       0.74987    0.97915    0.74964   1.00
C4       0.75013    1.02085    0.75036   1.00
C3       0.77602    0.95751    0.72610   1.00
C3       0.78526    1.04252    0.74961   1.00
C3       0.72385    0.95738    0.77321   1.00
C3       0.71502    1.04259    0.75097   1.00
C2       0.75015    0.89482    0.74994   1.00
C2       0.75015    1.10518    0.74994   1.00
C3a      0.77627    0.91599    0.72613   1.00
C3       0.78519    1.08382    0.74942   1.00
C3       0.72405    0.91611    0.77332   1.00
C3a      0.71482    1.08403    0.75079   1.00
H1       0.79619    0.97294    0.70733   1.00
H1       0.81305    1.02750    0.74953   1.00
C5       0.80443    0.89410    0.70054   1.00
H1       0.81271    1.09933    0.74889   1.00
H1       0.70388    0.90056    0.79200   1.00
C5       0.67643    1.10535    0.75151   1.00
H1       0.68731    1.02747    0.75044   1.00
H1       0.70366    0.97230    0.79238   1.00
H2       0.66124    1.09837    0.77931   1.00
H2       0.68090    1.13747    0.75086   1.00
N1       0.65233    1.09395    0.71818   1.00
C6       0.63794    1.05810    0.71104   1.00
C6       0.64016    1.11757    0.68922   1.00
C6       0.61646    1.05873    0.67701   1.00
C6       0.61788    1.09656    0.66313   1.00
H3       0.64265    1.03281    0.72940   1.00
H3       0.64715    1.14831    0.68704   1.00
H3       0.60139    1.03436    0.66380   1.00
H3       0.60419    1.10758    0.63694   1.00
H2       0.80035    0.86228    0.70526   1.00
H2       0.79875    0.90001    0.66917   1.00
N1       0.84450    0.90523    0.70971   1.00
C6       0.87483    0.88078    0.72373   1.00
C6       0.86150    0.94285    0.70625   1.00
C6       0.90825    0.90277    0.72848   1.00
C6       0.90006    0.94091    0.71776   1.00
H3       0.87192    0.84992    0.72976   1.00
H3       0.84627    0.96876    0.69652   1.00
H3       0.93604    0.89205    0.73886   1.00
H3       0.92035    0.96505    0.71839   1.00
C4       0.52085    0.74964    0.75013   1.00
C4       0.47915    0.75036    0.74987   1.00
C3       0.54249    0.72610    0.72398   1.00
C3       0.45748    0.74961    0.71474   1.00
C3       0.54262    0.77321    0.77615   1.00
C3       0.45741    0.75097    0.78498   1.00
C2       0.60518    0.74994    0.74985   1.00
C2       0.39482    0.74994    0.74985   1.00
C3a      0.58401    0.72613    0.72373   1.00
C3       0.41618    0.74942    0.71481   1.00
C3       0.58389    0.77332    0.77595   1.00
C3a      0.41597    0.75079    0.78518   1.00
H1       0.52706    0.70733    0.70381   1.00
H1       0.47250    0.74953    0.68695   1.00
C5       0.60590    0.70054    0.69557   1.00
H1       0.40067    0.74889    0.68729   1.00
H1       0.59944    0.79200    0.79612   1.00
C5       0.39465    0.75151    0.82357   1.00
H1       0.47253    0.75044    0.81269   1.00
H1       0.52770    0.79238    0.79634   1.00
H2       0.40163    0.77931    0.83876   1.00
H2       0.36253    0.75086    0.81910   1.00
N1       0.40605    0.71818    0.84767   1.00
C6       0.44190    0.71104    0.86206   1.00
C6       0.38243    0.68922    0.85984   1.00
C6       0.44127    0.67701    0.88354   1.00
C6       0.40344    0.66313    0.88212   1.00
H3       0.46719    0.72940    0.85735   1.00
H3       0.35169    0.68704    0.85285   1.00
H3       0.46564    0.66380    0.89861   1.00
H3       0.39242    0.63694    0.89581   1.00
H2       0.63772    0.70526    0.69965   1.00
H2       0.59999    0.66917    0.70125   1.00
N1       0.59477    0.70971    0.65550   1.00
C6       0.61922    0.72373    0.62517   1.00
C6       0.55715    0.70625    0.63850   1.00
C6       0.59723    0.72848    0.59175   1.00
C6       0.55909    0.71776    0.59994   1.00
H3       0.65008    0.72976    0.62808   1.00
H3       0.53124    0.69652    0.65373   1.00
H3       0.60795    0.73886    0.56396   1.00
H3       0.53495    0.71839    0.57965   1.00
C4       0.97915    0.74964    0.74987   1.00
C4       1.02085    0.75036    0.75013   1.00
C3       0.95751    0.72610    0.77602   1.00
C3       1.04252    0.74961    0.78526   1.00
C3       0.95738    0.77321    0.72385   1.00
C3       1.04259    0.75097    0.71502   1.00
C2       0.89482    0.74994    0.75015   1.00
C2       1.10518    0.74994    0.75015   1.00
C3a      0.91599    0.72613    0.77627   1.00
C3       1.08382    0.74942    0.78519   1.00
C3       0.91611    0.77332    0.72405   1.00
C3a      1.08403    0.75079    0.71482   1.00
H1       0.97294    0.70733    0.79619   1.00
H1       1.02750    0.74953    0.81305   1.00
C5       0.89410    0.70054    0.80443   1.00
H1       1.09933    0.74889    0.81271   1.00
H1       0.90056    0.79200    0.70388   1.00
C5       1.10535    0.75151    0.67643   1.00
H1       1.02747    0.75044    0.68731   1.00
H1       0.97230    0.79238    0.70366   1.00
H2       1.09837    0.77931    0.66124   1.00
H2       1.13747    0.75086    0.68090   1.00
N1       1.09395    0.71818    0.65233   1.00
C6       1.05810    0.71104    0.63794   1.00
C6       1.11757    0.68922    0.64016   1.00
C6       1.05873    0.67701    0.61646   1.00
C6       1.09656    0.66313    0.61788   1.00
H3       1.03281    0.72940    0.64265   1.00
H3       1.14831    0.68704    0.64715   1.00
H3       1.03436    0.66380    0.60139   1.00
H3       1.10758    0.63694    0.60419   1.00
H2       0.86228    0.70526    0.80035   1.00
H2       0.90001    0.66917    0.79875   1.00
N1       0.90523    0.70971    0.84450   1.00
C6       0.88078    0.72373    0.87483   1.00
C6       0.94285    0.70625    0.86150   1.00
C6       0.90277    0.72848    0.90825   1.00
C6       0.94091    0.71776    0.90006   1.00
H3       0.84992    0.72976    0.87192   1.00
H3       0.96876    0.69652    0.84627   1.00
H3       0.89205    0.73886    0.93604   1.00
H3       0.96505    0.71839    0.92035   1.00
C4       0.75013    0.52085    0.74964   1.00
C4       0.74987    0.47915    0.75036   1.00
C3       0.72398    0.54249    0.72610   1.00
C3       0.71474    0.45748    0.74961   1.00
C3       0.77615    0.54262    0.77321   1.00
C3       0.78498    0.45741    0.75097   1.00
C2       0.74985    0.60518    0.74994   1.00
C2       0.74985    0.39482    0.74994   1.00
C3a      0.72373    0.58401    0.72613   1.00
C3       0.71481    0.41618    0.74942   1.00
C3       0.77595    0.58389    0.77332   1.00
C3a      0.78518    0.41597    0.75079   1.00
H1       0.70381    0.52706    0.70733   1.00
H1       0.68695    0.47250    0.74953   1.00
C5       0.69557    0.60590    0.70054   1.00
H1       0.68729    0.40067    0.74889   1.00
H1       0.79612    0.59944    0.79200   1.00
C5       0.82357    0.39465    0.75151   1.00
H1       0.81269    0.47253    0.75044   1.00
H1       0.79634    0.52770    0.79238   1.00
H2       0.83876    0.40163    0.77931   1.00
H2       0.81910    0.36253    0.75086   1.00
N1       0.84767    0.40605    0.71818   1.00
C6       0.86206    0.44190    0.71104   1.00
C6       0.85984    0.38243    0.68922   1.00
C6       0.88354    0.44127    0.67701   1.00
C6       0.88212    0.40344    0.66313   1.00
H3       0.85735    0.46719    0.72940   1.00
H3       0.85285    0.35169    0.68704   1.00
H3       0.89861    0.46564    0.66380   1.00
H3       0.89581    0.39242    0.63694   1.00
H2       0.69965    0.63772    0.70526   1.00
H2       0.70125    0.59999    0.66917   1.00
N1       0.65550    0.59477    0.70971   1.00
C6       0.62517    0.61922    0.72373   1.00
C6       0.63850    0.55715    0.70625   1.00
C6       0.59175    0.59723    0.72848   1.00
C6       0.59994    0.55909    0.71776   1.00
H3       0.62808    0.65008    0.72976   1.00
H3       0.65373    0.53124    0.69652   1.00
H3       0.56396    0.60795    0.73886   1.00
H3       0.57965    0.53495    0.71839   1.00
C4       0.74964    0.75013    0.52085   1.00
C4       0.75036    0.74987    0.47915   1.00
C3       0.72610    0.72398    0.54249   1.00
C3       0.74961    0.71474    0.45748   1.00
C3       0.77321    0.77615    0.54262   1.00
C3       0.75097    0.78498    0.45741   1.00
C2       0.74994    0.74985    0.60518   1.00
C2       0.74994    0.74985    0.39482   1.00
C3a      0.72613    0.72373    0.58401   1.00
C3       0.74942    0.71481    0.41618   1.00
C3       0.77332    0.77595    0.58389   1.00
C3a      0.75079    0.78518    0.41597   1.00
H1       0.70733    0.70381    0.52706   1.00
H1       0.74953    0.68695    0.47250   1.00
C5       0.70054    0.69557    0.60590   1.00
H1       0.74889    0.68729    0.40067   1.00
H1       0.79200    0.79612    0.59944   1.00
C5       0.75151    0.82357    0.39465   1.00
H1       0.75044    0.81269    0.47253   1.00
H1       0.79238    0.79634    0.52770   1.00
H2       0.77931    0.83876    0.40163   1.00
H2       0.75086    0.81910    0.36253   1.00
N1       0.71818    0.84767    0.40605   1.00
C6       0.71104    0.86206    0.44190   1.00
C6       0.68922    0.85984    0.38243   1.00
C6       0.67701    0.88354    0.44127   1.00
C6       0.66313    0.88212    0.40344   1.00
H3       0.72940    0.85735    0.46719   1.00
H3       0.68704    0.85285    0.35169   1.00
H3       0.66380    0.89861    0.46564   1.00
H3       0.63694    0.89581    0.39242   1.00
H2       0.70526    0.69965    0.63772   1.00
H2       0.66917    0.70125    0.59999   1.00
N1       0.70971    0.65550    0.59477   1.00
C6       0.72373    0.62517    0.61922   1.00
C6       0.70625    0.63850    0.55715   1.00
C6       0.72848    0.59175    0.59723   1.00
C6       0.71776    0.59994    0.55909   1.00
H3       0.72976    0.62808    0.65008   1.00
H3       0.69652    0.65373    0.53124   1.00
H3       0.73886    0.56396    0.60795   1.00
H3       0.71839    0.57965    0.53495   1.00
C4       0.24964    0.24987    0.97915   1.00
C4       0.25036    0.25013    1.02085   1.00
C3       0.22610    0.27602    0.95751   1.00
C3       0.24961    0.28526    1.04252   1.00
C3       0.27321    0.22385    0.95738   1.00
C3       0.25097    0.21502    1.04259   1.00
C2       0.24994    0.25015    0.89482   1.00
C2       0.24994    0.25015    1.10518   1.00
C3a      0.22613    0.27627    0.91599   1.00
C3       0.24942    0.28519    1.08382   1.00
C3       0.27332    0.22405    0.91611   1.00
C3a      0.25079    0.21482    1.08403   1.00
H1       0.20733    0.29619    0.97294   1.00
H1       0.24953    0.31305    1.02750   1.00
C5       0.20054    0.30443    0.89410   1.00
H1       0.24889    0.31271    1.09933   1.00
H1       0.29200    0.20388    0.90056   1.00
C5       0.25151    0.17643    1.10535   1.00
H1       0.25044    0.18731    1.02747   1.00
H1       0.29238    0.20366    0.97230   1.00
H2       0.27931    0.16124    1.09837   1.00
H2       0.25086    0.18090    1.13747   1.00
N1       0.21818    0.15233    1.09395   1.00
C6       0.21104    0.13794    1.05810   1.00
C6       0.18922    0.14016    1.11757   1.00
C6       0.17701    0.11646    1.05873   1.00
C6       0.16313    0.11788    1.09656   1.00
H3       0.22940    0.14265    1.03281   1.00
H3       0.18704    0.14715    1.14831   1.00
H3       0.16380    0.10139    1.03436   1.00
H3       0.13694    0.10419    1.10758   1.00
H2       0.20526    0.30035    0.86228   1.00
H2       0.16917    0.29875    0.90001   1.00
N1       0.20971    0.34450    0.90523   1.00
C6       0.22373    0.37483    0.88078   1.00
C6       0.20625    0.36150    0.94285   1.00
C6       0.22848    0.40825    0.90277   1.00
C6       0.21776    0.40006    0.94091   1.00
H3       0.22976    0.37192    0.84992   1.00
H3       0.19652    0.34627    0.96876   1.00
H3       0.23886    0.43604    0.89205   1.00
H3       0.21839    0.42035    0.96505   1.00
C4       0.24987    0.47915    0.74964   1.00
C4       0.25013    0.52085    0.75036   1.00
C3       0.27602    0.45751    0.72610   1.00
C3       0.28526    0.54252    0.74961   1.00
C3       0.22385    0.45738    0.77321   1.00
C3       0.21502    0.54259    0.75097   1.00
C2       0.25015    0.39482    0.74994   1.00
C2       0.25015    0.60518    0.74994   1.00
C3a      0.27627    0.41599    0.72613   1.00
C3       0.28519    0.58382    0.74942   1.00
C3       0.22405    0.41611    0.77332   1.00
C3a      0.21482    0.58403    0.75079   1.00
H1       0.29619    0.47294    0.70733   1.00
H1       0.31305    0.52750    0.74953   1.00
C5       0.30443    0.39410    0.70054   1.00
H1       0.31271    0.59933    0.74889   1.00
H1       0.20388    0.40056    0.79200   1.00
C5       0.17643    0.60535    0.75151   1.00
H1       0.18731    0.52747    0.75044   1.00
H1       0.20366    0.47230    0.79238   1.00
H2       0.16124    0.59837    0.77931   1.00
H2       0.18090    0.63747    0.75086   1.00
N1       0.15233    0.59395    0.71818   1.00
C6       0.13794    0.55810    0.71104   1.00
C6       0.14016    0.61757    0.68922   1.00
C6       0.11646    0.55873    0.67701   1.00
C6       0.11788    0.59656    0.66313   1.00
H3       0.14265    0.53281    0.72940   1.00
H3       0.14715    0.64831    0.68704   1.00
H3       0.10139    0.53436    0.66380   1.00
H3       0.10419    0.60758    0.63694   1.00
H2       0.30035    0.36228    0.70526   1.00
H2       0.29875    0.40001    0.66917   1.00
N1       0.34450    0.40523    0.70971   1.00
C6       0.37483    0.38078    0.72373   1.00
C6       0.36150    0.44285    0.70625   1.00
C6       0.40825    0.40277    0.72848   1.00
C6       0.40006    0.44091    0.71776   1.00
H3       0.37192    0.34992    0.72976   1.00
H3       0.34627    0.46876    0.69652   1.00
H3       0.43604    0.39205    0.73886   1.00
H3       0.42035    0.46505    0.71839   1.00
C4       0.02085    0.24964    0.75013   1.00
C4       -0.02085   0.25036    0.74987   1.00
C3       0.04249    0.22610    0.72398   1.00
C3       -0.04252   0.24961    0.71474   1.00
C3       0.04262    0.27321    0.77615   1.00
C3       -0.04259   0.25097    0.78498   1.00
C2       0.10518    0.24994    0.74985   1.00
C2       -0.10518   0.24994    0.74985   1.00
C3a      0.08401    0.22613    0.72373   1.00
C3       -0.08382   0.24942    0.71481   1.00
C3       0.08389    0.27332    0.77595   1.00
C3a      -0.08403   0.25079    0.78518   1.00
H1       0.02706    0.20733    0.70381   1.00
H1       -0.02750   0.24953    0.68695   1.00
C5       0.10590    0.20054    0.69557   1.00
H1       -0.09933   0.24889    0.68729   1.00
H1       0.09944    0.29200    0.79612   1.00
C5       -0.10535   0.25151    0.82357   1.00
H1       -0.02747   0.25044    0.81269   1.00
H1       0.02770    0.29238    0.79634   1.00
H2       -0.09837   0.27931    0.83876   1.00
H2       -0.13747   0.25086    0.81910   1.00
N1       -0.09395   0.21818    0.84767   1.00
C6       -0.05810   0.21104    0.86206   1.00
C6       -0.11757   0.18922    0.85984   1.00
C6       -0.05873   0.17701    0.88354   1.00
C6       -0.09656   0.16313    0.88212   1.00
H3       -0.03281   0.22940    0.85735   1.00
H3       -0.14831   0.18704    0.85285   1.00
H3       -0.03436   0.16380    0.89861   1.00
H3       -0.10758   0.13694    0.89581   1.00
H2       0.13772    0.20526    0.69965   1.00
H2       0.09999    0.16917    0.70125   1.00
N1       0.09477    0.20971    0.65550   1.00
C6       0.11922    0.22373    0.62517   1.00
C6       0.05715    0.20625    0.63850   1.00
C6       0.09723    0.22848    0.59175   1.00
C6       0.05909    0.21776    0.59994   1.00
H3       0.15008    0.22976    0.62808   1.00
H3       0.03124    0.19652    0.65373   1.00
H3       0.10795    0.23886    0.56396   1.00
H3       0.03495    0.21839    0.57965   1.00
C4       0.47915    0.24964    0.74987   1.00
C4       0.52085    0.25036    0.75013   1.00
C3       0.45751    0.22610    0.77602   1.00
C3       0.54252    0.24961    0.78526   1.00
C3       0.45738    0.27321    0.72385   1.00
C3       0.54259    0.25097    0.71502   1.00
C2       0.39482    0.24994    0.75015   1.00
C2       0.60518    0.24994    0.75015   1.00
C3a      0.41599    0.22613    0.77627   1.00
C3       0.58382    0.24942    0.78519   1.00
C3       0.41611    0.27332    0.72405   1.00
C3a      0.58403    0.25079    0.71482   1.00
H1       0.47294    0.20733    0.79619   1.00
H1       0.52750    0.24953    0.81305   1.00
C5       0.39410    0.20054    0.80443   1.00
H1       0.59933    0.24889    0.81271   1.00
H1       0.40056    0.29200    0.70388   1.00
C5       0.60535    0.25151    0.67643   1.00
H1       0.52747    0.25044    0.68731   1.00
H1       0.47230    0.29238    0.70366   1.00
H2       0.59837    0.27931    0.66124   1.00
H2       0.63747    0.25086    0.68090   1.00
N1       0.59395    0.21818    0.65233   1.00
C6       0.55810    0.21104    0.63794   1.00
C6       0.61757    0.18922    0.64016   1.00
C6       0.55873    0.17701    0.61646   1.00
C6       0.59656    0.16313    0.61788   1.00
H3       0.53281    0.22940    0.64265   1.00
H3       0.64831    0.18704    0.64715   1.00
H3       0.53436    0.16380    0.60139   1.00
H3       0.60758    0.13694    0.60419   1.00
H2       0.36228    0.20526    0.80035   1.00
H2       0.40001    0.16917    0.79875   1.00
N1       0.40523    0.20971    0.84450   1.00
C6       0.38078    0.22373    0.87483   1.00
C6       0.44285    0.20625    0.86150   1.00
C6       0.40277    0.22848    0.90825   1.00
C6       0.44091    0.21776    0.90006   1.00
H3       0.34992    0.22976    0.87192   1.00
H3       0.46876    0.19652    0.84627   1.00
H3       0.39205    0.23886    0.93604   1.00
H3       0.46505    0.21839    0.92035   1.00
C4       0.25013    0.02085    0.74964   1.00
C4       0.24987    -0.02085   0.75036   1.00
C3       0.22398    0.04249    0.72610   1.00
C3       0.21474    -0.04252   0.74961   1.00
C3       0.27615    0.04262    0.77321   1.00
C3       0.28498    -0.04259   0.75097   1.00
C2       0.24985    0.10518    0.74994   1.00
C2       0.24985    -0.10518   0.74994   1.00
C3a      0.22373    0.08401    0.72613   1.00
C3       0.21481    -0.08382   0.74942   1.00
C3       0.27595    0.08389    0.77332   1.00
C3a      0.28518    -0.08403   0.75079   1.00
H1       0.20381    0.02706    0.70733   1.00
H1       0.18695    -0.02750   0.74953   1.00
C5       0.19557    0.10590    0.70054   1.00
H1       0.18729    -0.09933   0.74889   1.00
H1       0.29612    0.09944    0.79200   1.00
C5       0.32357    -0.10535   0.75151   1.00
H1       0.31269    -0.02747   0.75044   1.00
H1       0.29634    0.02770    0.79238   1.00
H2       0.33876    -0.09837   0.77931   1.00
H2       0.31910    -0.13747   0.75086   1.00
N1       0.34767    -0.09395   0.71818   1.00
C6       0.36206    -0.05810   0.71104   1.00
C6       0.35984    -0.11757   0.68922   1.00
C6       0.38354    -0.05873   0.67701   1.00
C6       0.38212    -0.09656   0.66313   1.00
H3       0.35735    -0.03281   0.72940   1.00
H3       0.35285    -0.14831   0.68704   1.00
H3       0.39861    -0.03436   0.66380   1.00
H3       0.39581    -0.10758   0.63694   1.00
H2       0.19965    0.13772    0.70526   1.00
H2       0.20125    0.09999    0.66917   1.00
N1       0.15550    0.09477    0.70971   1.00
C6       0.12517    0.11922    0.72373   1.00
C6       0.13850    0.05715    0.70625   1.00
C6       0.09175    0.09723    0.72848   1.00
C6       0.09994    0.05909    0.71776   1.00
H3       0.12808    0.15008    0.72976   1.00
H3       0.15373    0.03124    0.69652   1.00
H3       0.06396    0.10795    0.73886   1.00
H3       0.07965    0.03495    0.71839   1.00
C4       0.24964    0.25013    0.52085   1.00
C4       0.25036    0.24987    0.47915   1.00
C3       0.22610    0.22398    0.54249   1.00
C3       0.24961    0.21474    0.45748   1.00
C3       0.27321    0.27615    0.54262   1.00
C3       0.25097    0.28498    0.45741   1.00
C2       0.24994    0.24985    0.60518   1.00
C2       0.24994    0.24985    0.39482   1.00
C3a      0.22613    0.22373    0.58401   1.00
C3       0.24942    0.21481    0.41618   1.00
C3       0.27332    0.27595    0.58389   1.00
C3a      0.25079    0.28518    0.41597   1.00
H1       0.20733    0.20381    0.52706   1.00
H1       0.24953    0.18695    0.47250   1.00
C5       0.20054    0.19557    0.60590   1.00
H1       0.24889    0.18729    0.40067   1.00
H1       0.29200    0.29612    0.59944   1.00
C5       0.25151    0.32357    0.39465   1.00
H1       0.25044    0.31269    0.47253   1.00
H1       0.29238    0.29634    0.52770   1.00
H2       0.27931    0.33876    0.40163   1.00
H2       0.25086    0.31910    0.36253   1.00
N1       0.21818    0.34767    0.40605   1.00
C6       0.21104    0.36206    0.44190   1.00
C6       0.18922    0.35984    0.38243   1.00
C6       0.17701    0.38354    0.44127   1.00
C6       0.16313    0.38212    0.40344   1.00
H3       0.22940    0.35735    0.46719   1.00
H3       0.18704    0.35285    0.35169   1.00
H3       0.16380    0.39861    0.46564   1.00
H3       0.13694    0.39581    0.39242   1.00
H2       0.20526    0.19965    0.63772   1.00
H2       0.16917    0.20125    0.59999   1.00
N1       0.20971    0.15550    0.59477   1.00
C6       0.22373    0.12517    0.61922   1.00
C6       0.20625    0.13850    0.55715   1.00
C6       0.22848    0.09175    0.59723   1.00
C6       0.21776    0.09994    0.55909   1.00
H3       0.22976    0.12808    0.65008   1.00
H3       0.19652    0.15373    0.53124   1.00
H3       0.23886    0.06396    0.60795   1.00
H3       0.21839    0.07965    0.53495   1.00
C4       0.24964    0.74987    0.47915   1.00
C4       0.25036    0.75013    0.52085   1.00
C3       0.22610    0.77602    0.45751   1.00
C3       0.24961    0.78526    0.54252   1.00
C3       0.27321    0.72385    0.45738   1.00
C3       0.25097    0.71502    0.54259   1.00
C2       0.24994    0.75015    0.39482   1.00
C2       0.24994    0.75015    0.60518   1.00
C3a      0.22613    0.77627    0.41599   1.00
C3       0.24942    0.78519    0.58382   1.00
C3       0.27332    0.72405    0.41611   1.00
C3a      0.25079    0.71482    0.58403   1.00
H1       0.20733    0.79619    0.47294   1.00
H1       0.24953    0.81305    0.52750   1.00
C5       0.20054    0.80443    0.39410   1.00
H1       0.24889    0.81271    0.59933   1.00
H1       0.29200    0.70388    0.40056   1.00
C5       0.25151    0.67643    0.60535   1.00
H1       0.25044    0.68731    0.52747   1.00
H1       0.29238    0.70366    0.47230   1.00
H2       0.27931    0.66124    0.59837   1.00
H2       0.25086    0.68090    0.63747   1.00
N1       0.21818    0.65233    0.59395   1.00
C6       0.21104    0.63794    0.55810   1.00
C6       0.18922    0.64016    0.61757   1.00
C6       0.17701    0.61646    0.55873   1.00
C6       0.16313    0.61788    0.59656   1.00
H3       0.22940    0.64265    0.53281   1.00
H3       0.18704    0.64715    0.64831   1.00
H3       0.16380    0.60139    0.53436   1.00
H3       0.13694    0.60419    0.60758   1.00
H2       0.20526    0.80035    0.36228   1.00
H2       0.16917    0.79875    0.40001   1.00
N1       0.20971    0.84450    0.40523   1.00
C6       0.22373    0.87483    0.38078   1.00
C6       0.20625    0.86150    0.44285   1.00
C6       0.22848    0.90825    0.40277   1.00
C6       0.21776    0.90006    0.44091   1.00
H3       0.22976    0.87192    0.34992   1.00
H3       0.19652    0.84627    0.46876   1.00
H3       0.23886    0.93604    0.39205   1.00
H3       0.21839    0.92035    0.46505   1.00
C4       0.24987    0.97915    0.24964   1.00
C4       0.25013    1.02085    0.25036   1.00
C3       0.27602    0.95751    0.22610   1.00
C3       0.28526    1.04252    0.24961   1.00
C3       0.22385    0.95738    0.27321   1.00
C3       0.21502    1.04259    0.25097   1.00
C2       0.25015    0.89482    0.24994   1.00
C2       0.25015    1.10518    0.24994   1.00
C3a      0.27627    0.91599    0.22613   1.00
C3       0.28519    1.08382    0.24942   1.00
C3       0.22405    0.91611    0.27332   1.00
C3a      0.21482    1.08403    0.25079   1.00
H1       0.29619    0.97294    0.20733   1.00
H1       0.31305    1.02750    0.24953   1.00
C5       0.30443    0.89410    0.20054   1.00
H1       0.31271    1.09933    0.24889   1.00
H1       0.20388    0.90056    0.29200   1.00
C5       0.17643    1.10535    0.25151   1.00
H1       0.18731    1.02747    0.25044   1.00
H1       0.20366    0.97230    0.29238   1.00
H2       0.16124    1.09837    0.27931   1.00
H2       0.18090    1.13747    0.25086   1.00
N1       0.15233    1.09395    0.21818   1.00
C6       0.13794    1.05810    0.21104   1.00
C6       0.14016    1.11757    0.18922   1.00
C6       0.11646    1.05873    0.17701   1.00
C6       0.11788    1.09656    0.16313   1.00
H3       0.14265    1.03281    0.22940   1.00
H3       0.14715    1.14831    0.18704   1.00
H3       0.10139    1.03436    0.16380   1.00
H3       0.10419    1.10758    0.13694   1.00
H2       0.30035    0.86228    0.20526   1.00
H2       0.29875    0.90001    0.16917   1.00
N1       0.34450    0.90523    0.20971   1.00
C6       0.37483    0.88078    0.22373   1.00
C6       0.36150    0.94285    0.20625   1.00
C6       0.40825    0.90277    0.22848   1.00
C6       0.40006    0.94091    0.21776   1.00
H3       0.37192    0.84992    0.22976   1.00
H3       0.34627    0.96876    0.19652   1.00
H3       0.43604    0.89205    0.23886   1.00
H3       0.42035    0.96505    0.21839   1.00
C4       0.02085    0.74964    0.25013   1.00
C4       -0.02085   0.75036    0.24987   1.00
C3       0.04249    0.72610    0.22398   1.00
C3       -0.04252   0.74961    0.21474   1.00
C3       0.04262    0.77321    0.27615   1.00
C3       -0.04259   0.75097    0.28498   1.00
C2       0.10518    0.74994    0.24985   1.00
C2       -0.10518   0.74994    0.24985   1.00
C3a      0.08401    0.72613    0.22373   1.00
C3       -0.08382   0.74942    0.21481   1.00
C3       0.08389    0.77332    0.27595   1.00
C3a      -0.08403   0.75079    0.28518   1.00
H1       0.02706    0.70733    0.20381   1.00
H1       -0.02750   0.74953    0.18695   1.00
C5       0.10590    0.70054    0.19557   1.00
H1       -0.09933   0.74889    0.18729   1.00
H1       0.09944    0.79200    0.29612   1.00
C5       -0.10535   0.75151    0.32357   1.00
H1       -0.02747   0.75044    0.31269   1.00
H1       0.02770    0.79238    0.29634   1.00
H2       -0.09837   0.77931    0.33876   1.00
H2       -0.13747   0.75086    0.31910   1.00
N1       -0.09395   0.71818    0.34767   1.00
C6       -0.05810   0.71104    0.36206   1.00
C6       -0.11757   0.68922    0.35984   1.00
C6       -0.05873   0.67701    0.38354   1.00
C6       -0.09656   0.66313    0.38212   1.00
H3       -0.03281   0.72940    0.35735   1.00
H3       -0.14831   0.68704    0.35285   1.00
H3       -0.03436   0.66380    0.39861   1.00
H3       -0.10758   0.63694    0.39581   1.00
H2       0.13772    0.70526    0.19965   1.00
H2       0.09999    0.66917    0.20125   1.00
N1       0.09477    0.70971    0.15550   1.00
C6       0.11922    0.72373    0.12517   1.00
C6       0.05715    0.70625    0.13850   1.00
C6       0.09723    0.72848    0.09175   1.00
C6       0.05909    0.71776    0.09994   1.00
H3       0.15008    0.72976    0.12808   1.00
H3       0.03124    0.69652    0.15373   1.00
H3       0.10795    0.73886    0.06396   1.00
H3       0.03495    0.71839    0.07965   1.00
C4       0.47915    0.74964    0.24987   1.00
C4       0.52085    0.75036    0.25013   1.00
C3       0.45751    0.72610    0.27602   1.00
C3       0.54252    0.74961    0.28526   1.00
C3       0.45738    0.77321    0.22385   1.00
C3       0.54259    0.75097    0.21502   1.00
C2       0.39482    0.74994    0.25015   1.00
C2       0.60518    0.74994    0.25015   1.00
C3a      0.41599    0.72613    0.27627   1.00
C3       0.58382    0.74942    0.28519   1.00
C3       0.41611    0.77332    0.22405   1.00
C3a      0.58403    0.75079    0.21482   1.00
H1       0.47294    0.70733    0.29619   1.00
H1       0.52750    0.74953    0.31305   1.00
C5       0.39410    0.70054    0.30443   1.00
H1       0.59933    0.74889    0.31271   1.00
H1       0.40056    0.79200    0.20388   1.00
C5       0.60535    0.75151    0.17643   1.00
H1       0.52747    0.75044    0.18731   1.00
H1       0.47230    0.79238    0.20366   1.00
H2       0.59837    0.77931    0.16124   1.00
H2       0.63747    0.75086    0.18090   1.00
N1       0.59395    0.71818    0.15233   1.00
C6       0.55810    0.71104    0.13794   1.00
C6       0.61757    0.68922    0.14016   1.00
C6       0.55873    0.67701    0.11646   1.00
C6       0.59656    0.66313    0.11788   1.00
H3       0.53281    0.72940    0.14265   1.00
H3       0.64831    0.68704    0.14715   1.00
H3       0.53436    0.66380    0.10139   1.00
H3       0.60758    0.63694    0.10419   1.00
H2       0.36228    0.70526    0.30035   1.00
H2       0.40001    0.66917    0.29875   1.00
N1       0.40523    0.70971    0.34450   1.00
C6       0.38078    0.72373    0.37483   1.00
C6       0.44285    0.70625    0.36150   1.00
C6       0.40277    0.72848    0.40825   1.00
C6       0.44091    0.71776    0.40006   1.00
H3       0.34992    0.72976    0.37192   1.00
H3       0.46876    0.69652    0.34627   1.00
H3       0.39205    0.73886    0.43604   1.00
H3       0.46505    0.71839    0.42035   1.00
C4       0.25013    0.52085    0.24964   1.00
C4       0.24987    0.47915    0.25036   1.00
C3       0.22398    0.54249    0.22610   1.00
C3       0.21474    0.45748    0.24961   1.00
C3       0.27615    0.54262    0.27321   1.00
C3       0.28498    0.45741    0.25097   1.00
C2       0.24985    0.60518    0.24994   1.00
C2       0.24985    0.39482    0.24994   1.00
C3a      0.22373    0.58401    0.22613   1.00
C3       0.21481    0.41618    0.24942   1.00
C3       0.27595    0.58389    0.27332   1.00
C3a      0.28518    0.41597    0.25079   1.00
H1       0.20381    0.52706    0.20733   1.00
H1       0.18695    0.47250    0.24953   1.00
C5       0.19557    0.60590    0.20054   1.00
H1       0.18729    0.40067    0.24889   1.00
H1       0.29612    0.59944    0.29200   1.00
C5       0.32357    0.39465    0.25151   1.00
H1       0.31269    0.47253    0.25044   1.00
H1       0.29634    0.52770    0.29238   1.00
H2       0.33876    0.40163    0.27931   1.00
H2       0.31910    0.36253    0.25086   1.00
N1       0.34767    0.40605    0.21818   1.00
C6       0.36206    0.44190    0.21104   1.00
C6       0.35984    0.38243    0.18922   1.00
C6       0.38354    0.44127    0.17701   1.00
C6       0.38212    0.40344    0.16313   1.00
H3       0.35735    0.46719    0.22940   1.00
H3       0.35285    0.35169    0.18704   1.00
H3       0.39861    0.46564    0.16380   1.00
H3       0.39581    0.39242    0.13694   1.00
H2       0.19965    0.63772    0.20526   1.00
H2       0.20125    0.59999    0.16917   1.00
N1       0.15550    0.59477    0.20971   1.00
C6       0.12517    0.61922    0.22373   1.00
C6       0.13850    0.55715    0.20625   1.00
C6       0.09175    0.59723    0.22848   1.00
C6       0.09994    0.55909    0.21776   1.00
H3       0.12808    0.65008    0.22976   1.00
H3       0.15373    0.53124    0.19652   1.00
H3       0.06396    0.60795    0.23886   1.00
H3       0.07965    0.53495    0.21839   1.00
C4       0.24964    0.75013    0.02085   1.00
C4       0.25036    0.74987    -0.02085   1.00
C3       0.22610    0.72398    0.04249   1.00
C3       0.24961    0.71474    -0.04252   1.00
C3       0.27321    0.77615    0.04262   1.00
C3       0.25097    0.78498    -0.04259   1.00
C2       0.24994    0.74985    0.10518   1.00
C2       0.24994    0.74985    -0.10518   1.00
C3a      0.22613    0.72373    0.08401   1.00
C3       0.24942    0.71481    -0.08382   1.00
C3       0.27332    0.77595    0.08389   1.00
C3a      0.25079    0.78518    -0.08403   1.00
H1       0.20733    0.70381    0.02706   1.00
H1       0.24953    0.68695    -0.02750   1.00
C5       0.20054    0.69557    0.10590   1.00
H1       0.24889    0.68729    -0.09933   1.00
H1       0.29200    0.79612    0.09944   1.00
C5       0.25151    0.82357    -0.10535   1.00
H1       0.25044    0.81269    -0.02747   1.00
H1       0.29238    0.79634    0.02770   1.00
H2       0.27931    0.83876    -0.09837   1.00
H2       0.25086    0.81910    -0.13747   1.00
N1       0.21818    0.84767    -0.09395   1.00
C6       0.21104    0.86206    -0.05810   1.00
C6       0.18922    0.85984    -0.11757   1.00
C6       0.17701    0.88354    -0.05873   1.00
C6       0.16313    0.88212    -0.09656   1.00
H3       0.22940    0.85735    -0.03281   1.00
H3       0.18704    0.85285    -0.14831   1.00
H3       0.16380    0.89861    -0.03436   1.00
H3       0.13694    0.89581    -0.10758   1.00
H2       0.20526    0.69965    0.13772   1.00
H2       0.16917    0.70125    0.09999   1.00
N1       0.20971    0.65550    0.09477   1.00
C6       0.22373    0.62517    0.11922   1.00
C6       0.20625    0.63850    0.05715   1.00
C6       0.22848    0.59175    0.09723   1.00
C6       0.21776    0.59994    0.05909   1.00
H3       0.22976    0.62808    0.15008   1.00
H3       0.19652    0.65373    0.03124   1.00
H3       0.23886    0.56396    0.10795   1.00
H3       0.21839    0.57965    0.03495   1.00
C4       0.74964    0.24987    0.47915   1.00
C4       0.75036    0.25013    0.52085   1.00
C3       0.72610    0.27602    0.45751   1.00
C3       0.74961    0.28526    0.54252   1.00
C3       0.77321    0.22385    0.45738   1.00
C3       0.75097    0.21502    0.54259   1.00
C2       0.74994    0.25015    0.39482   1.00
C2       0.74994    0.25015    0.60518   1.00
C3a      0.72613    0.27627    0.41599   1.00
C3       0.74942    0.28519    0.58382   1.00
C3       0.77332    0.22405    0.41611   1.00
C3a      0.75079    0.21482    0.58403   1.00
H1       0.70733    0.29619    0.47294   1.00
H1       0.74953    0.31305    0.52750   1.00
C5       0.70054    0.30443    0.39410   1.00
H1       0.74889    0.31271    0.59933   1.00
H1       0.79200    0.20388    0.40056   1.00
C5       0.75151    0.17643    0.60535   1.00
H1       0.75044    0.18731    0.52747   1.00
H1       0.79238    0.20366    0.47230   1.00
H2       0.77931    0.16124    0.59837   1.00
H2       0.75086    0.18090    0.63747   1.00
N1       0.71818    0.15233    0.59395   1.00
C6       0.71104    0.13794    0.55810   1.00
C6       0.68922    0.14016    0.61757   1.00
C6       0.67701    0.11646    0.55873   1.00
C6       0.66313    0.11788    0.59656   1.00
H3       0.72940    0.14265    0.53281   1.00
H3       0.68704    0.14715    0.64831   1.00
H3       0.66380    0.10139    0.53436   1.00
H3       0.63694    0.10419    0.60758   1.00
H2       0.70526    0.30035    0.36228   1.00
H2       0.66917    0.29875    0.40001   1.00
N1       0.70971    0.34450    0.40523   1.00
C6       0.72373    0.37483    0.38078   1.00
C6       0.70625    0.36150    0.44285   1.00
C6       0.72848    0.40825    0.40277   1.00
C6       0.71776    0.40006    0.44091   1.00
H3       0.72976    0.37192    0.34992   1.00
H3       0.69652    0.34627    0.46876   1.00
H3       0.73886    0.43604    0.39205   1.00
H3       0.71839    0.42035    0.46505   1.00
C4       0.74987    0.47915    0.24964   1.00
C4       0.75013    0.52085    0.25036   1.00
C3       0.77602    0.45751    0.22610   1.00
C3       0.78526    0.54252    0.24961   1.00
C3       0.72385    0.45738    0.27321   1.00
C3       0.71502    0.54259    0.25097   1.00
C2       0.75015    0.39482    0.24994   1.00
C2       0.75015    0.60518    0.24994   1.00
C3a      0.77627    0.41599    0.22613   1.00
C3       0.78519    0.58382    0.24942   1.00
C3       0.72405    0.41611    0.27332   1.00
C3a      0.71482    0.58403    0.25079   1.00
H1       0.79619    0.47294    0.20733   1.00
H1       0.81305    0.52750    0.24953   1.00
C5       0.80443    0.39410    0.20054   1.00
H1       0.81271    0.59933    0.24889   1.00
H1       0.70388    0.40056    0.29200   1.00
C5       0.67643    0.60535    0.25151   1.00
H1       0.68731    0.52747    0.25044   1.00
H1       0.70366    0.47230    0.29238   1.00
H2       0.66124    0.59837    0.27931   1.00
H2       0.68090    0.63747    0.25086   1.00
N1       0.65233    0.59395    0.21818   1.00
C6       0.63794    0.55810    0.21104   1.00
C6       0.64016    0.61757    0.18922   1.00
C6       0.61646    0.55873    0.17701   1.00
C6       0.61788    0.59656    0.16313   1.00
H3       0.64265    0.53281    0.22940   1.00
H3       0.64715    0.64831    0.18704   1.00
H3       0.60139    0.53436    0.16380   1.00
H3       0.60419    0.60758    0.13694   1.00
H2       0.80035    0.36228    0.20526   1.00
H2       0.79875    0.40001    0.16917   1.00
N1       0.84450    0.40523    0.20971   1.00
C6       0.87483    0.38078    0.22373   1.00
C6       0.86150    0.44285    0.20625   1.00
C6       0.90825    0.40277    0.22848   1.00
C6       0.90006    0.44091    0.21776   1.00
H3       0.87192    0.34992    0.22976   1.00
H3       0.84627    0.46876    0.19652   1.00
H3       0.93604    0.39205    0.23886   1.00
H3       0.92035    0.46505    0.21839   1.00
C4       0.52085    0.24964    0.25013   1.00
C4       0.47915    0.25036    0.24987   1.00
C3       0.54249    0.22610    0.22398   1.00
C3       0.45748    0.24961    0.21474   1.00
C3       0.54262    0.27321    0.27615   1.00
C3       0.45741    0.25097    0.28498   1.00
C2       0.60518    0.24994    0.24985   1.00
C2       0.39482    0.24994    0.24985   1.00
C3a      0.58401    0.22613    0.22373   1.00
C3       0.41618    0.24942    0.21481   1.00
C3       0.58389    0.27332    0.27595   1.00
C3a      0.41597    0.25079    0.28518   1.00
H1       0.52706    0.20733    0.20381   1.00
H1       0.47250    0.24953    0.18695   1.00
C5       0.60590    0.20054    0.19557   1.00
H1       0.40067    0.24889    0.18729   1.00
H1       0.59944    0.29200    0.29612   1.00
C5       0.39465    0.25151    0.32357   1.00
H1       0.47253    0.25044    0.31269   1.00
H1       0.52770    0.29238    0.29634   1.00
H2       0.40163    0.27931    0.33876   1.00
H2       0.36253    0.25086    0.31910   1.00
N1       0.40605    0.21818    0.34767   1.00
C6       0.44190    0.21104    0.36206   1.00
C6       0.38243    0.18922    0.35984   1.00
C6       0.44127    0.17701    0.38354   1.00
C6       0.40344    0.16313    0.38212   1.00
H3       0.46719    0.22940    0.35735   1.00
H3       0.35169    0.18704    0.35285   1.00
H3       0.46564    0.16380    0.39861   1.00
H3       0.39242    0.13694    0.39581   1.00
H2       0.63772    0.20526    0.19965   1.00
H2       0.59999    0.16917    0.20125   1.00
N1       0.59477    0.20971    0.15550   1.00
C6       0.61922    0.22373    0.12517   1.00
C6       0.55715    0.20625    0.13850   1.00
C6       0.59723    0.22848    0.09175   1.00
C6       0.55909    0.21776    0.09994   1.00
H3       0.65008    0.22976    0.12808   1.00
H3       0.53124    0.19652    0.15373   1.00
H3       0.60795    0.23886    0.06396   1.00
H3       0.53495    0.21839    0.07965   1.00
C4       0.97915    0.24964    0.24987   1.00
C4       1.02085    0.25036    0.25013   1.00
C3       0.95751    0.22610    0.27602   1.00
C3       1.04252    0.24961    0.28526   1.00
C3       0.95738    0.27321    0.22385   1.00
C3       1.04259    0.25097    0.21502   1.00
C2       0.89482    0.24994    0.25015   1.00
C2       1.10518    0.24994    0.25015   1.00
C3a      0.91599    0.22613    0.27627   1.00
C3       1.08382    0.24942    0.28519   1.00
C3       0.91611    0.27332    0.22405   1.00
C3a      1.08403    0.25079    0.21482   1.00
H1       0.97294    0.20733    0.29619   1.00
H1       1.02750    0.24953    0.31305   1.00
C5       0.89410    0.20054    0.30443   1.00
H1       1.09933    0.24889    0.31271   1.00
H1       0.90056    0.29200    0.20388   1.00
C5       1.10535    0.25151    0.17643   1.00
H1       1.02747    0.25044    0.18731   1.00
H1       0.97230    0.29238    0.20366   1.00
H2       1.09837    0.27931    0.16124   1.00
H2       1.13747    0.25086    0.18090   1.00
N1       1.09395    0.21818    0.15233   1.00
C6       1.05810    0.21104    0.13794   1.00
C6       1.11757    0.18922    0.14016   1.00
C6       1.05873    0.17701    0.11646   1.00
C6       1.09656    0.16313    0.11788   1.00
H3       1.03281    0.22940    0.14265   1.00
H3       1.14831    0.18704    0.14715   1.00
H3       1.03436    0.16380    0.10139   1.00
H3       1.10758    0.13694    0.10419   1.00
H2       0.86228    0.20526    0.30035   1.00
H2       0.90001    0.16917    0.29875   1.00
N1       0.90523    0.20971    0.34450   1.00
C6       0.88078    0.22373    0.37483   1.00
C6       0.94285    0.20625    0.36150   1.00
C6       0.90277    0.22848    0.40825   1.00
C6       0.94091    0.21776    0.40006   1.00
H3       0.84992    0.22976    0.37192   1.00
H3       0.96876    0.19652    0.34627   1.00
H3       0.89205    0.23886    0.43604   1.00
H3       0.96505    0.21839    0.42035   1.00
C4       0.75013    0.02085    0.24964   1.00
C4       0.74987    -0.02085   0.25036   1.00
C3       0.72398    0.04249    0.22610   1.00
C3       0.71474    -0.04252   0.24961   1.00
C3       0.77615    0.04262    0.27321   1.00
C3       0.78498    -0.04259   0.25097   1.00
C2       0.74985    0.10518    0.24994   1.00
C2       0.74985    -0.10518   0.24994   1.00
C3a      0.72373    0.08401    0.22613   1.00
C3       0.71481    -0.08382   0.24942   1.00
C3       0.77595    0.08389    0.27332   1.00
C3a      0.78518    -0.08403   0.25079   1.00
H1       0.70381    0.02706    0.20733   1.00
H1       0.68695    -0.02750   0.24953   1.00
C5       0.69557    0.10590    0.20054   1.00
H1       0.68729    -0.09933   0.24889   1.00
H1       0.79612    0.09944    0.29200   1.00
C5       0.82357    -0.10535   0.25151   1.00
H1       0.81269    -0.02747   0.25044   1.00
H1       0.79634    0.02770    0.29238   1.00
H2       0.83876    -0.09837   0.27931   1.00
H2       0.81910    -0.13747   0.25086   1.00
N1       0.84767    -0.09395   0.21818   1.00
C6       0.86206    -0.05810   0.21104   1.00
C6       0.85984    -0.11757   0.18922   1.00
C6       0.88354    -0.05873   0.17701   1.00
C6       0.88212    -0.09656   0.16313   1.00
H3       0.85735    -0.03281   0.22940   1.00
H3       0.85285    -0.14831   0.18704   1.00
H3       0.89861    -0.03436   0.16380   1.00
H3       0.89581    -0.10758   0.13694   1.00
H2       0.69965    0.13772    0.20526   1.00
H2       0.70125    0.09999    0.16917   1.00
N1       0.65550    0.09477    0.20971   1.00
C6       0.62517    0.11922    0.22373   1.00
C6       0.63850    0.05715    0.20625   1.00
C6       0.59175    0.09723    0.22848   1.00
C6       0.59994    0.05909    0.21776   1.00
H3       0.62808    0.15008    0.22976   1.00
H3       0.65373    0.03124    0.19652   1.00
H3       0.56396    0.10795    0.23886   1.00
H3       0.57965    0.03495    0.21839   1.00
C4       0.74964    0.25013    0.02085   1.00
C4       0.75036    0.24987    -0.02085   1.00
C3       0.72610    0.22398    0.04249   1.00
C3       0.74961    0.21474    -0.04252   1.00
C3       0.77321    0.27615    0.04262   1.00
C3       0.75097    0.28498    -0.04259   1.00
C2       0.74994    0.24985    0.10518   1.00
C2       0.74994    0.24985    -0.10518   1.00
C3a      0.72613    0.22373    0.08401   1.00
C3       0.74942    0.21481    -0.08382   1.00
C3       0.77332    0.27595    0.08389   1.00
C3a      0.75079    0.28518    -0.08403   1.00
H1       0.70733    0.20381    0.02706   1.00
H1       0.74953    0.18695    -0.02750   1.00
C5       0.70054    0.19557    0.10590   1.00
H1       0.74889    0.18729    -0.09933   1.00
H1       0.79200    0.29612    0.09944   1.00
C5       0.75151    0.32357    -0.10535   1.00
H1       0.75044    0.31269    -0.02747   1.00
H1       0.79238    0.29634    0.02770   1.00
H2       0.77931    0.33876    -0.09837   1.00
H2       0.75086    0.31910    -0.13747   1.00
N1       0.71818    0.34767    -0.09395   1.00
C6       0.71104    0.36206    -0.05810   1.00
C6       0.68922    0.35984    -0.11757   1.00
C6       0.67701    0.38354    -0.05873   1.00
C6       0.66313    0.38212    -0.09656   1.00
H3       0.72940    0.35735    -0.03281   1.00
H3       0.68704    0.35285    -0.14831   1.00
H3       0.66380    0.39861    -0.03436   1.00
H3       0.63694    0.39581    -0.10758   1.00
H2       0.70526    0.19965    0.13772   1.00
H2       0.66917    0.20125    0.09999   1.00
N1       0.70971    0.15550    0.09477   1.00
C6       0.72373    0.12517    0.11922   1.00
C6       0.70625    0.13850    0.05715   1.00
C6       0.72848    0.09175    0.09723   1.00
C6       0.71776    0.09994    0.05909   1.00
H3       0.72976    0.12808    0.15008   1.00
H3       0.69652    0.15373    0.03124   1.00
H3       0.73886    0.06396    0.10795   1.00
H3       0.71839    0.07965    0.03495   1.00
