data_IRMOF10_SG202_Ligand12_label_i.

_audit_creation_method             'generated by an auxiliary program of Tobunporous'

_symmetry_space_group_name_H-M     'P 1'
_symmetry_Int_Tables_number        1
_symmetry_cell_setting             triclinic

_cell_length_a                    34.2800
_cell_length_b                    34.2800
_cell_length_c                    34.2800
_cell_angle_alpha                 90.0000
_cell_angle_beta                  90.0000
_cell_angle_gamma                 90.0000

loop_
_atom_site_label
_atom_site_fract_x
_atom_site_fract_y
_atom_site_fract_z
_atom_site_occupancy
O1       0.75000    0.75000    0.75000   1.00
Zn1      0.71720    0.78280    0.78280   1.00
Zn1      0.78280    0.71720    0.78280   1.00
Zn1      0.78280    0.78280    0.71720   1.00
Zn1      0.71720    0.71720    0.71720   1.00
O2       0.72650    0.77350    0.83820   1.00
O2       0.72650    0.83820    0.77350   1.00
O2       0.66180    0.77350    0.77350   1.00
O2       0.77350    0.72650    0.83820   1.00
O2       0.83820    0.72650    0.77350   1.00
O2       0.77350    0.66180    0.77350   1.00
O2       0.77350    0.83820    0.72650   1.00
O2       0.83820    0.77350    0.72650   1.00
O2       0.77350    0.77350    0.66180   1.00
O2       0.66180    0.72650    0.72650   1.00
O2       0.72650    0.66180    0.72650   1.00
O2       0.72650    0.72650    0.66180   1.00
C1       0.75000    0.75000    0.85520   1.00
C1       0.75000    0.85520    0.75000   1.00
C1       0.64480    0.75000    0.75000   1.00
C1       0.85520    0.75000    0.75000   1.00
C1       0.75000    0.64480    0.75000   1.00
C1       0.75000    0.75000    0.64480   1.00
O1       0.25000    0.25000    0.75000   1.00
Zn1      0.21720    0.28280    0.78280   1.00
Zn1      0.28280    0.21720    0.78280   1.00
Zn1      0.28280    0.28280    0.71720   1.00
Zn1      0.21720    0.21720    0.71720   1.00
O2       0.22650    0.27350    0.83820   1.00
O2       0.22650    0.33820    0.77350   1.00
O2       0.16180    0.27350    0.77350   1.00
O2       0.27350    0.22650    0.83820   1.00
O2       0.33820    0.22650    0.77350   1.00
O2       0.27350    0.16180    0.77350   1.00
O2       0.27350    0.33820    0.72650   1.00
O2       0.33820    0.27350    0.72650   1.00
O2       0.27350    0.27350    0.66180   1.00
O2       0.16180    0.22650    0.72650   1.00
O2       0.22650    0.16180    0.72650   1.00
O2       0.22650    0.22650    0.66180   1.00
C1       0.25000    0.25000    0.85520   1.00
C1       0.25000    0.35520    0.75000   1.00
C1       0.14480    0.25000    0.75000   1.00
C1       0.35520    0.25000    0.75000   1.00
C1       0.25000    0.14480    0.75000   1.00
C1       0.25000    0.25000    0.64480   1.00
O1       0.25000    0.75000    0.25000   1.00
Zn1      0.21720    0.78280    0.28280   1.00
Zn1      0.28280    0.71720    0.28280   1.00
Zn1      0.28280    0.78280    0.21720   1.00
Zn1      0.21720    0.71720    0.21720   1.00
O2       0.22650    0.77350    0.33820   1.00
O2       0.22650    0.83820    0.27350   1.00
O2       0.16180    0.77350    0.27350   1.00
O2       0.27350    0.72650    0.33820   1.00
O2       0.33820    0.72650    0.27350   1.00
O2       0.27350    0.66180    0.27350   1.00
O2       0.27350    0.83820    0.22650   1.00
O2       0.33820    0.77350    0.22650   1.00
O2       0.27350    0.77350    0.16180   1.00
O2       0.16180    0.72650    0.22650   1.00
O2       0.22650    0.66180    0.22650   1.00
O2       0.22650    0.72650    0.16180   1.00
C1       0.25000    0.75000    0.35520   1.00
C1       0.25000    0.85520    0.25000   1.00
C1       0.14480    0.75000    0.25000   1.00
C1       0.35520    0.75000    0.25000   1.00
C1       0.25000    0.64480    0.25000   1.00
C1       0.25000    0.75000    0.14480   1.00
O1       0.75000    0.25000    0.25000   1.00
Zn1      0.71720    0.28280    0.28280   1.00
Zn1      0.78280    0.21720    0.28280   1.00
Zn1      0.78280    0.28280    0.21720   1.00
Zn1      0.71720    0.21720    0.21720   1.00
O2       0.72650    0.27350    0.33820   1.00
O2       0.72650    0.33820    0.27350   1.00
O2       0.66180    0.27350    0.27350   1.00
O2       0.77350    0.22650    0.33820   1.00
O2       0.83820    0.22650    0.27350   1.00
O2       0.77350    0.16180    0.27350   1.00
O2       0.77350    0.33820    0.22650   1.00
O2       0.83820    0.27350    0.22650   1.00
O2       0.77350    0.27350    0.16180   1.00
O2       0.66180    0.22650    0.22650   1.00
O2       0.72650    0.16180    0.22650   1.00
O2       0.72650    0.22650    0.16180   1.00
C1       0.75000    0.25000    0.35520   1.00
C1       0.75000    0.35520    0.25000   1.00
C1       0.64480    0.25000    0.25000   1.00
C1       0.85520    0.25000    0.25000   1.00
C1       0.75000    0.14480    0.25000   1.00
C1       0.75000    0.25000    0.14480   1.00
O1       0.25000    0.25000    0.25000   1.00
Zn1      0.28280    0.21720    0.21720   1.00
Zn1      0.21720    0.28280    0.21720   1.00
Zn1      0.21720    0.21720    0.28280   1.00
Zn1      0.28280    0.28280    0.28280   1.00
O2       0.27350    0.22650    0.16180   1.00
O2       0.27350    0.16180    0.22650   1.00
O2       0.33820    0.22650    0.22650   1.00
O2       0.22650    0.27350    0.16180   1.00
O2       0.16180    0.27350    0.22650   1.00
O2       0.22650    0.33820    0.22650   1.00
O2       0.22650    0.16180    0.27350   1.00
O2       0.16180    0.22650    0.27350   1.00
O2       0.22650    0.22650    0.33820   1.00
O2       0.33820    0.27350    0.27350   1.00
O2       0.27350    0.33820    0.27350   1.00
O2       0.27350    0.27350    0.33820   1.00
C1       0.25000    0.25000    0.14480   1.00
C1       0.25000    0.14480    0.25000   1.00
C1       0.35520    0.25000    0.25000   1.00
C1       0.14480    0.25000    0.25000   1.00
C1       0.25000    0.35520    0.25000   1.00
C1       0.25000    0.25000    0.35520   1.00
O1       0.75000    0.75000    0.25000   1.00
Zn1      0.78280    0.71720    0.21720   1.00
Zn1      0.71720    0.78280    0.21720   1.00
Zn1      0.71720    0.71720    0.28280   1.00
Zn1      0.78280    0.78280    0.28280   1.00
O2       0.77350    0.72650    0.16180   1.00
O2       0.77350    0.66180    0.22650   1.00
O2       0.83820    0.72650    0.22650   1.00
O2       0.72650    0.77350    0.16180   1.00
O2       0.66180    0.77350    0.22650   1.00
O2       0.72650    0.83820    0.22650   1.00
O2       0.72650    0.66180    0.27350   1.00
O2       0.66180    0.72650    0.27350   1.00
O2       0.72650    0.72650    0.33820   1.00
O2       0.83820    0.77350    0.27350   1.00
O2       0.77350    0.83820    0.27350   1.00
O2       0.77350    0.77350    0.33820   1.00
C1       0.75000    0.75000    0.14480   1.00
C1       0.75000    0.64480    0.25000   1.00
C1       0.85520    0.75000    0.25000   1.00
C1       0.64480    0.75000    0.25000   1.00
C1       0.75000    0.85520    0.25000   1.00
C1       0.75000    0.75000    0.35520   1.00
O1       0.75000    0.25000    0.75000   1.00
Zn1      0.78280    0.21720    0.71720   1.00
Zn1      0.71720    0.28280    0.71720   1.00
Zn1      0.71720    0.21720    0.78280   1.00
Zn1      0.78280    0.28280    0.78280   1.00
O2       0.77350    0.22650    0.66180   1.00
O2       0.77350    0.16180    0.72650   1.00
O2       0.83820    0.22650    0.72650   1.00
O2       0.72650    0.27350    0.66180   1.00
O2       0.66180    0.27350    0.72650   1.00
O2       0.72650    0.33820    0.72650   1.00
O2       0.72650    0.16180    0.77350   1.00
O2       0.66180    0.22650    0.77350   1.00
O2       0.72650    0.22650    0.83820   1.00
O2       0.83820    0.27350    0.77350   1.00
O2       0.77350    0.33820    0.77350   1.00
O2       0.77350    0.27350    0.83820   1.00
C1       0.75000    0.25000    0.64480   1.00
C1       0.75000    0.14480    0.75000   1.00
C1       0.85520    0.25000    0.75000   1.00
C1       0.64480    0.25000    0.75000   1.00
C1       0.75000    0.35520    0.75000   1.00
C1       0.75000    0.25000    0.85520   1.00
O1       0.25000    0.75000    0.75000   1.00
Zn1      0.28280    0.71720    0.71720   1.00
Zn1      0.21720    0.78280    0.71720   1.00
Zn1      0.21720    0.71720    0.78280   1.00
Zn1      0.28280    0.78280    0.78280   1.00
O2       0.27350    0.72650    0.66180   1.00
O2       0.27350    0.66180    0.72650   1.00
O2       0.33820    0.72650    0.72650   1.00
O2       0.22650    0.77350    0.66180   1.00
O2       0.16180    0.77350    0.72650   1.00
O2       0.22650    0.83820    0.72650   1.00
O2       0.22650    0.66180    0.77350   1.00
O2       0.16180    0.72650    0.77350   1.00
O2       0.22650    0.72650    0.83820   1.00
O2       0.33820    0.77350    0.77350   1.00
O2       0.27350    0.83820    0.77350   1.00
O2       0.27350    0.77350    0.83820   1.00
C1       0.25000    0.75000    0.64480   1.00
C1       0.25000    0.64480    0.75000   1.00
C1       0.35520    0.75000    0.75000   1.00
C1       0.14480    0.75000    0.75000   1.00
C1       0.25000    0.85520    0.75000   1.00
C1       0.25000    0.75000    0.85520   1.00
C4       0.75067    0.75039    1.02067   1.00
C4       0.74933    0.74961    0.97933   1.00
C3       0.77143    0.72177    1.04244   1.00
C3       0.76373    0.71733    0.95756   1.00
C4       0.73067    0.78017    1.04150   1.00
C4       0.73354    0.78183    0.95850   1.00
C2       0.75030    0.74945    1.10352   1.00
C2       0.75033    0.74946    0.89648   1.00
C3       0.77082    0.72127    1.08310   1.00
C3       0.76447    0.71760    0.91690   1.00
C3       0.73088    0.77890    1.08306   1.00
C3       0.73453    0.78101    0.91694   1.00
H1       0.78930    0.69979    1.02888   1.00
H1       0.77383    0.69086    0.97112   1.00
C5       0.71152    0.81068    1.02065   1.00
C5       0.71669    0.81366    0.97935   1.00
H1       0.78665    0.69892    1.09886   1.00
H1       0.77591    0.69272    0.90114   1.00
H1       0.71664    0.80084    1.10053   1.00
H1       0.72265    0.80431    0.89947   1.00
C6       0.68454    0.83885    1.04234   1.00
C6       0.70578    0.85112    0.95766   1.00
H2       0.65957    0.84742    1.02358   1.00
H2       0.66990    0.82473    1.06737   1.00
C6       0.70708    0.87464    1.05724   1.00
H2       0.71085    0.87702    0.97642   1.00
H2       0.72533    0.85673    0.93263   1.00
C6       0.66352    0.84949    0.94276   1.00
H2       0.72155    0.89026    1.03274   1.00
C6       0.67968    0.90271    1.07832   1.00
H2       0.73060    0.86522    1.07760   1.00
C6       0.65291    0.88726    0.92168   1.00
H2       0.65992    0.82441    0.92240   1.00
H2       0.64276    0.84476    0.96726   1.00
H2       0.65647    0.91314    1.05822   1.00
H2       0.66587    0.88817    1.10380   1.00
H2       0.69632    0.92840    1.08898   1.00
H2       0.65548    0.91257    0.94178   1.00
H2       0.67241    0.89194    0.89620   1.00
H2       0.62234    0.88569    0.91102   1.00
C4       0.75039    1.02067    0.75067   1.00
C4       0.74961    0.97933    0.74933   1.00
C3       0.72177    1.04244    0.77143   1.00
C3       0.71733    0.95756    0.76373   1.00
C4       0.78017    1.04150    0.73067   1.00
C4       0.78183    0.95850    0.73354   1.00
C2       0.74945    1.10352    0.75030   1.00
C2       0.74946    0.89648    0.75033   1.00
C3       0.72127    1.08310    0.77082   1.00
C3       0.71760    0.91690    0.76447   1.00
C3       0.77890    1.08306    0.73088   1.00
C3       0.78101    0.91694    0.73453   1.00
H1       0.69979    1.02888    0.78930   1.00
H1       0.69086    0.97112    0.77383   1.00
C5       0.81068    1.02065    0.71152   1.00
C5       0.81366    0.97935    0.71669   1.00
H1       0.69892    1.09886    0.78665   1.00
H1       0.69272    0.90114    0.77591   1.00
H1       0.80084    1.10053    0.71664   1.00
H1       0.80431    0.89947    0.72265   1.00
C6       0.83885    1.04234    0.68454   1.00
C6       0.85112    0.95766    0.70578   1.00
H2       0.84742    1.02358    0.65957   1.00
H2       0.82473    1.06737    0.66990   1.00
C6       0.87464    1.05724    0.70708   1.00
H2       0.87702    0.97642    0.71085   1.00
H2       0.85673    0.93263    0.72533   1.00
C6       0.84949    0.94276    0.66352   1.00
H2       0.89026    1.03274    0.72155   1.00
C6       0.90271    1.07832    0.67968   1.00
H2       0.86522    1.07760    0.73060   1.00
C6       0.88726    0.92168    0.65291   1.00
H2       0.82441    0.92240    0.65992   1.00
H2       0.84476    0.96726    0.64276   1.00
H2       0.91314    1.05822    0.65647   1.00
H2       0.88817    1.10380    0.66587   1.00
H2       0.92840    1.08898    0.69632   1.00
H2       0.91257    0.94178    0.65548   1.00
H2       0.89194    0.89620    0.67241   1.00
H2       0.88569    0.91102    0.62234   1.00
C4       0.47933    0.75067    0.74961   1.00
C4       0.52067    0.74933    0.75039   1.00
C3       0.45756    0.77143    0.77823   1.00
C3       0.54244    0.76373    0.78267   1.00
C4       0.45850    0.73067    0.71983   1.00
C4       0.54150    0.73354    0.71817   1.00
C2       0.39648    0.75030    0.75055   1.00
C2       0.60352    0.75033    0.75054   1.00
C3       0.41690    0.77082    0.77873   1.00
C3       0.58310    0.76447    0.78240   1.00
C3       0.41694    0.73088    0.72110   1.00
C3       0.58306    0.73453    0.71899   1.00
H1       0.47112    0.78930    0.80021   1.00
H1       0.52888    0.77383    0.80914   1.00
C5       0.47935    0.71152    0.68932   1.00
C5       0.52065    0.71669    0.68634   1.00
H1       0.40114    0.78665    0.80108   1.00
H1       0.59886    0.77591    0.80728   1.00
H1       0.39947    0.71664    0.69916   1.00
H1       0.60053    0.72265    0.69569   1.00
C6       0.45766    0.68454    0.66115   1.00
C6       0.54234    0.70578    0.64888   1.00
H2       0.47642    0.65957    0.65258   1.00
H2       0.43263    0.66990    0.67527   1.00
C6       0.44276    0.70708    0.62536   1.00
H2       0.52358    0.71085    0.62298   1.00
H2       0.56737    0.72533    0.64327   1.00
C6       0.55724    0.66352    0.65051   1.00
H2       0.46726    0.72155    0.60974   1.00
C6       0.42168    0.67968    0.59729   1.00
H2       0.42240    0.73060    0.63478   1.00
C6       0.57832    0.65291    0.61274   1.00
H2       0.57760    0.65992    0.67559   1.00
H2       0.53274    0.64276    0.65524   1.00
H2       0.44178    0.65647    0.58686   1.00
H2       0.39620    0.66587    0.61183   1.00
H2       0.41102    0.69632    0.57160   1.00
H2       0.55822    0.65548    0.58743   1.00
H2       0.60380    0.67241    0.60806   1.00
H2       0.58898    0.62234    0.61431   1.00
C4       1.02067    0.75067    0.75039   1.00
C4       0.97933    0.74933    0.74961   1.00
C3       1.04244    0.77143    0.72177   1.00
C3       0.95756    0.76373    0.71733   1.00
C4       1.04150    0.73067    0.78017   1.00
C4       0.95850    0.73354    0.78183   1.00
C2       1.10352    0.75030    0.74945   1.00
C2       0.89648    0.75033    0.74946   1.00
C3       1.08310    0.77082    0.72127   1.00
C3       0.91690    0.76447    0.71760   1.00
C3       1.08306    0.73088    0.77890   1.00
C3       0.91694    0.73453    0.78101   1.00
H1       1.02888    0.78930    0.69979   1.00
H1       0.97112    0.77383    0.69086   1.00
C5       1.02065    0.71152    0.81068   1.00
C5       0.97935    0.71669    0.81366   1.00
H1       1.09886    0.78665    0.69892   1.00
H1       0.90114    0.77591    0.69272   1.00
H1       1.10053    0.71664    0.80084   1.00
H1       0.89947    0.72265    0.80431   1.00
C6       1.04234    0.68454    0.83885   1.00
C6       0.95766    0.70578    0.85112   1.00
H2       1.02358    0.65957    0.84742   1.00
H2       1.06737    0.66990    0.82473   1.00
C6       1.05724    0.70708    0.87464   1.00
H2       0.97642    0.71085    0.87702   1.00
H2       0.93263    0.72533    0.85673   1.00
C6       0.94276    0.66352    0.84949   1.00
H2       1.03274    0.72155    0.89026   1.00
C6       1.07832    0.67968    0.90271   1.00
H2       1.07760    0.73060    0.86522   1.00
C6       0.92168    0.65291    0.88726   1.00
H2       0.92240    0.65992    0.82441   1.00
H2       0.96726    0.64276    0.84476   1.00
H2       1.05822    0.65647    0.91314   1.00
H2       1.10380    0.66587    0.88817   1.00
H2       1.08898    0.69632    0.92840   1.00
H2       0.94178    0.65548    0.91257   1.00
H2       0.89620    0.67241    0.89194   1.00
H2       0.91102    0.62234    0.88569   1.00
C4       0.74961    0.47933    0.75067   1.00
C4       0.75039    0.52067    0.74933   1.00
C3       0.77823    0.45756    0.77143   1.00
C3       0.78267    0.54244    0.76373   1.00
C4       0.71983    0.45850    0.73067   1.00
C4       0.71817    0.54150    0.73354   1.00
C2       0.75055    0.39648    0.75030   1.00
C2       0.75054    0.60352    0.75033   1.00
C3       0.77873    0.41690    0.77082   1.00
C3       0.78240    0.58310    0.76447   1.00
C3       0.72110    0.41694    0.73088   1.00
C3       0.71899    0.58306    0.73453   1.00
H1       0.80021    0.47112    0.78930   1.00
H1       0.80914    0.52888    0.77383   1.00
C5       0.68932    0.47935    0.71152   1.00
C5       0.68634    0.52065    0.71669   1.00
H1       0.80108    0.40114    0.78665   1.00
H1       0.80728    0.59886    0.77591   1.00
H1       0.69916    0.39947    0.71664   1.00
H1       0.69569    0.60053    0.72265   1.00
C6       0.66115    0.45766    0.68454   1.00
C6       0.64888    0.54234    0.70578   1.00
H2       0.65258    0.47642    0.65957   1.00
H2       0.67527    0.43263    0.66990   1.00
C6       0.62536    0.44276    0.70708   1.00
H2       0.62298    0.52358    0.71085   1.00
H2       0.64327    0.56737    0.72533   1.00
C6       0.65051    0.55724    0.66352   1.00
H2       0.60974    0.46726    0.72155   1.00
C6       0.59729    0.42168    0.67968   1.00
H2       0.63478    0.42240    0.73060   1.00
C6       0.61274    0.57832    0.65291   1.00
H2       0.67559    0.57760    0.65992   1.00
H2       0.65524    0.53274    0.64276   1.00
H2       0.58686    0.44178    0.65647   1.00
H2       0.61183    0.39620    0.66587   1.00
H2       0.57160    0.41102    0.69632   1.00
H2       0.58743    0.55822    0.65548   1.00
H2       0.60806    0.60380    0.67241   1.00
H2       0.61431    0.58898    0.62234   1.00
C4       0.75067    0.74961    0.47933   1.00
C4       0.74933    0.75039    0.52067   1.00
C3       0.77143    0.77823    0.45756   1.00
C3       0.76373    0.78267    0.54244   1.00
C4       0.73067    0.71983    0.45850   1.00
C4       0.73354    0.71817    0.54150   1.00
C2       0.75030    0.75055    0.39648   1.00
C2       0.75033    0.75054    0.60352   1.00
C3       0.77082    0.77873    0.41690   1.00
C3       0.76447    0.78240    0.58310   1.00
C3       0.73088    0.72110    0.41694   1.00
C3       0.73453    0.71899    0.58306   1.00
H1       0.78930    0.80021    0.47112   1.00
H1       0.77383    0.80914    0.52888   1.00
C5       0.71152    0.68932    0.47935   1.00
C5       0.71669    0.68634    0.52065   1.00
H1       0.78665    0.80108    0.40114   1.00
H1       0.77591    0.80728    0.59886   1.00
H1       0.71664    0.69916    0.39947   1.00
H1       0.72265    0.69569    0.60053   1.00
C6       0.68454    0.66115    0.45766   1.00
C6       0.70578    0.64888    0.54234   1.00
H2       0.65957    0.65258    0.47642   1.00
H2       0.66990    0.67527    0.43263   1.00
C6       0.70708    0.62536    0.44276   1.00
H2       0.71085    0.62298    0.52358   1.00
H2       0.72533    0.64327    0.56737   1.00
C6       0.66352    0.65051    0.55724   1.00
H2       0.72155    0.60974    0.46726   1.00
C6       0.67968    0.59729    0.42168   1.00
H2       0.73060    0.63478    0.42240   1.00
C6       0.65291    0.61274    0.57832   1.00
H2       0.65992    0.67559    0.57760   1.00
H2       0.64276    0.65524    0.53274   1.00
H2       0.65647    0.58686    0.44178   1.00
H2       0.66587    0.61183    0.39620   1.00
H2       0.69632    0.57160    0.41102   1.00
H2       0.65548    0.58743    0.55822   1.00
H2       0.67241    0.60806    0.60380   1.00
H2       0.62234    0.61431    0.58898   1.00
C4       0.25067    0.25039    1.02067   1.00
C4       0.24933    0.24961    0.97933   1.00
C3       0.27143    0.22177    1.04244   1.00
C3       0.26373    0.21733    0.95756   1.00
C4       0.23067    0.28017    1.04150   1.00
C4       0.23354    0.28183    0.95850   1.00
C2       0.25030    0.24945    1.10352   1.00
C2       0.25033    0.24946    0.89648   1.00
C3       0.27082    0.22127    1.08310   1.00
C3       0.26447    0.21760    0.91690   1.00
C3       0.23088    0.27890    1.08306   1.00
C3       0.23453    0.28101    0.91694   1.00
H1       0.28930    0.19979    1.02888   1.00
H1       0.27383    0.19086    0.97112   1.00
C5       0.21152    0.31068    1.02065   1.00
C5       0.21669    0.31366    0.97935   1.00
H1       0.28665    0.19892    1.09886   1.00
H1       0.27591    0.19272    0.90114   1.00
H1       0.21664    0.30084    1.10053   1.00
H1       0.22265    0.30431    0.89947   1.00
C6       0.18454    0.33885    1.04234   1.00
C6       0.20578    0.35112    0.95766   1.00
H2       0.15957    0.34742    1.02358   1.00
H2       0.16990    0.32473    1.06737   1.00
C6       0.20708    0.37464    1.05724   1.00
H2       0.21085    0.37702    0.97642   1.00
H2       0.22533    0.35673    0.93263   1.00
C6       0.16352    0.34949    0.94276   1.00
H2       0.22155    0.39026    1.03274   1.00
C6       0.17968    0.40271    1.07832   1.00
H2       0.23060    0.36522    1.07760   1.00
C6       0.15291    0.38726    0.92168   1.00
H2       0.15992    0.32441    0.92240   1.00
H2       0.14276    0.34476    0.96726   1.00
H2       0.15647    0.41314    1.05822   1.00
H2       0.16587    0.38817    1.10380   1.00
H2       0.19632    0.42840    1.08898   1.00
H2       0.15548    0.41257    0.94178   1.00
H2       0.17241    0.39194    0.89620   1.00
H2       0.12234    0.38569    0.91102   1.00
C4       0.25039    0.52067    0.75067   1.00
C4       0.24961    0.47933    0.74933   1.00
C3       0.22177    0.54244    0.77143   1.00
C3       0.21733    0.45756    0.76373   1.00
C4       0.28017    0.54150    0.73067   1.00
C4       0.28183    0.45850    0.73354   1.00
C2       0.24945    0.60352    0.75030   1.00
C2       0.24946    0.39648    0.75033   1.00
C3       0.22127    0.58310    0.77082   1.00
C3       0.21760    0.41690    0.76447   1.00
C3       0.27890    0.58306    0.73088   1.00
C3       0.28101    0.41694    0.73453   1.00
H1       0.19979    0.52888    0.78930   1.00
H1       0.19086    0.47112    0.77383   1.00
C5       0.31068    0.52065    0.71152   1.00
C5       0.31366    0.47935    0.71669   1.00
H1       0.19892    0.59886    0.78665   1.00
H1       0.19272    0.40114    0.77591   1.00
H1       0.30084    0.60053    0.71664   1.00
H1       0.30431    0.39947    0.72265   1.00
C6       0.33885    0.54234    0.68454   1.00
C6       0.35112    0.45766    0.70578   1.00
H2       0.34742    0.52358    0.65957   1.00
H2       0.32473    0.56737    0.66990   1.00
C6       0.37464    0.55724    0.70708   1.00
H2       0.37702    0.47642    0.71085   1.00
H2       0.35673    0.43263    0.72533   1.00
C6       0.34949    0.44276    0.66352   1.00
H2       0.39026    0.53274    0.72155   1.00
C6       0.40271    0.57832    0.67968   1.00
H2       0.36522    0.57760    0.73060   1.00
C6       0.38726    0.42168    0.65291   1.00
H2       0.32441    0.42240    0.65992   1.00
H2       0.34476    0.46726    0.64276   1.00
H2       0.41314    0.55822    0.65647   1.00
H2       0.38817    0.60380    0.66587   1.00
H2       0.42840    0.58898    0.69632   1.00
H2       0.41257    0.44178    0.65548   1.00
H2       0.39194    0.39620    0.67241   1.00
H2       0.38569    0.41102    0.62234   1.00
C4       -0.02067   0.25067    0.74961   1.00
C4       0.02067    0.24933    0.75039   1.00
C3       -0.04244   0.27143    0.77823   1.00
C3       0.04244    0.26373    0.78267   1.00
C4       -0.04150   0.23067    0.71983   1.00
C4       0.04150    0.23354    0.71817   1.00
C2       -0.10352   0.25030    0.75055   1.00
C2       0.10352    0.25033    0.75054   1.00
C3       -0.08310   0.27082    0.77873   1.00
C3       0.08310    0.26447    0.78240   1.00
C3       -0.08306   0.23088    0.72110   1.00
C3       0.08306    0.23453    0.71899   1.00
H1       -0.02888   0.28930    0.80021   1.00
H1       0.02888    0.27383    0.80914   1.00
C5       -0.02065   0.21152    0.68932   1.00
C5       0.02065    0.21669    0.68634   1.00
H1       -0.09886   0.28665    0.80108   1.00
H1       0.09886    0.27591    0.80728   1.00
H1       -0.10053   0.21664    0.69916   1.00
H1       0.10053    0.22265    0.69569   1.00
C6       -0.04234   0.18454    0.66115   1.00
C6       0.04234    0.20578    0.64888   1.00
H2       -0.02358   0.15957    0.65258   1.00
H2       -0.06737   0.16990    0.67527   1.00
C6       -0.05724   0.20708    0.62536   1.00
H2       0.02358    0.21085    0.62298   1.00
H2       0.06737    0.22533    0.64327   1.00
C6       0.05724    0.16352    0.65051   1.00
H2       -0.03274   0.22155    0.60974   1.00
C6       -0.07832   0.17968    0.59729   1.00
H2       -0.07760   0.23060    0.63478   1.00
C6       0.07832    0.15291    0.61274   1.00
H2       0.07760    0.15992    0.67559   1.00
H2       0.03274    0.14276    0.65524   1.00
H2       -0.05822   0.15647    0.58686   1.00
H2       -0.10380   0.16587    0.61183   1.00
H2       -0.08898   0.19632    0.57160   1.00
H2       0.05822    0.15548    0.58743   1.00
H2       0.10380    0.17241    0.60806   1.00
H2       0.08898    0.12234    0.61431   1.00
C4       0.52067    0.25067    0.75039   1.00
C4       0.47933    0.24933    0.74961   1.00
C3       0.54244    0.27143    0.72177   1.00
C3       0.45756    0.26373    0.71733   1.00
C4       0.54150    0.23067    0.78017   1.00
C4       0.45850    0.23354    0.78183   1.00
C2       0.60352    0.25030    0.74945   1.00
C2       0.39648    0.25033    0.74946   1.00
C3       0.58310    0.27082    0.72127   1.00
C3       0.41690    0.26447    0.71760   1.00
C3       0.58306    0.23088    0.77890   1.00
C3       0.41694    0.23453    0.78101   1.00
H1       0.52888    0.28930    0.69979   1.00
H1       0.47112    0.27383    0.69086   1.00
C5       0.52065    0.21152    0.81068   1.00
C5       0.47935    0.21669    0.81366   1.00
H1       0.59886    0.28665    0.69892   1.00
H1       0.40114    0.27591    0.69272   1.00
H1       0.60053    0.21664    0.80084   1.00
H1       0.39947    0.22265    0.80431   1.00
C6       0.54234    0.18454    0.83885   1.00
C6       0.45766    0.20578    0.85112   1.00
H2       0.52358    0.15957    0.84742   1.00
H2       0.56737    0.16990    0.82473   1.00
C6       0.55724    0.20708    0.87464   1.00
H2       0.47642    0.21085    0.87702   1.00
H2       0.43263    0.22533    0.85673   1.00
C6       0.44276    0.16352    0.84949   1.00
H2       0.53274    0.22155    0.89026   1.00
C6       0.57832    0.17968    0.90271   1.00
H2       0.57760    0.23060    0.86522   1.00
C6       0.42168    0.15291    0.88726   1.00
H2       0.42240    0.15992    0.82441   1.00
H2       0.46726    0.14276    0.84476   1.00
H2       0.55822    0.15647    0.91314   1.00
H2       0.60380    0.16587    0.88817   1.00
H2       0.58898    0.19632    0.92840   1.00
H2       0.44178    0.15548    0.91257   1.00
H2       0.39620    0.17241    0.89194   1.00
H2       0.41102    0.12234    0.88569   1.00
C4       0.24961    -0.02067   0.75067   1.00
C4       0.25039    0.02067    0.74933   1.00
C3       0.27823    -0.04244   0.77143   1.00
C3       0.28267    0.04244    0.76373   1.00
C4       0.21983    -0.04150   0.73067   1.00
C4       0.21817    0.04150    0.73354   1.00
C2       0.25055    -0.10352   0.75030   1.00
C2       0.25054    0.10352    0.75033   1.00
C3       0.27873    -0.08310   0.77082   1.00
C3       0.28240    0.08310    0.76447   1.00
C3       0.22110    -0.08306   0.73088   1.00
C3       0.21899    0.08306    0.73453   1.00
H1       0.30021    -0.02888   0.78930   1.00
H1       0.30914    0.02888    0.77383   1.00
C5       0.18932    -0.02065   0.71152   1.00
C5       0.18634    0.02065    0.71669   1.00
H1       0.30108    -0.09886   0.78665   1.00
H1       0.30728    0.09886    0.77591   1.00
H1       0.19916    -0.10053   0.71664   1.00
H1       0.19569    0.10053    0.72265   1.00
C6       0.16115    -0.04234   0.68454   1.00
C6       0.14888    0.04234    0.70578   1.00
H2       0.15258    -0.02358   0.65957   1.00
H2       0.17527    -0.06737   0.66990   1.00
C6       0.12536    -0.05724   0.70708   1.00
H2       0.12298    0.02358    0.71085   1.00
H2       0.14327    0.06737    0.72533   1.00
C6       0.15051    0.05724    0.66352   1.00
H2       0.10974    -0.03274   0.72155   1.00
C6       0.09729    -0.07832   0.67968   1.00
H2       0.13478    -0.07760   0.73060   1.00
C6       0.11274    0.07832    0.65291   1.00
H2       0.17559    0.07760    0.65992   1.00
H2       0.15524    0.03274    0.64276   1.00
H2       0.08686    -0.05822   0.65647   1.00
H2       0.11183    -0.10380   0.66587   1.00
H2       0.07160    -0.08898   0.69632   1.00
H2       0.08743    0.05822    0.65548   1.00
H2       0.10806    0.10380    0.67241   1.00
H2       0.11431    0.08898    0.62234   1.00
C4       0.25067    0.24961    0.47933   1.00
C4       0.24933    0.25039    0.52067   1.00
C3       0.27143    0.27823    0.45756   1.00
C3       0.26373    0.28267    0.54244   1.00
C4       0.23067    0.21983    0.45850   1.00
C4       0.23354    0.21817    0.54150   1.00
C2       0.25030    0.25055    0.39648   1.00
C2       0.25033    0.25054    0.60352   1.00
C3       0.27082    0.27873    0.41690   1.00
C3       0.26447    0.28240    0.58310   1.00
C3       0.23088    0.22110    0.41694   1.00
C3       0.23453    0.21899    0.58306   1.00
H1       0.28930    0.30021    0.47112   1.00
H1       0.27383    0.30914    0.52888   1.00
C5       0.21152    0.18932    0.47935   1.00
C5       0.21669    0.18634    0.52065   1.00
H1       0.28665    0.30108    0.40114   1.00
H1       0.27591    0.30728    0.59886   1.00
H1       0.21664    0.19916    0.39947   1.00
H1       0.22265    0.19569    0.60053   1.00
C6       0.18454    0.16115    0.45766   1.00
C6       0.20578    0.14888    0.54234   1.00
H2       0.15957    0.15258    0.47642   1.00
H2       0.16990    0.17527    0.43263   1.00
C6       0.20708    0.12536    0.44276   1.00
H2       0.21085    0.12298    0.52358   1.00
H2       0.22533    0.14327    0.56737   1.00
C6       0.16352    0.15051    0.55724   1.00
H2       0.22155    0.10974    0.46726   1.00
C6       0.17968    0.09729    0.42168   1.00
H2       0.23060    0.13478    0.42240   1.00
C6       0.15291    0.11274    0.57832   1.00
H2       0.15992    0.17559    0.57760   1.00
H2       0.14276    0.15524    0.53274   1.00
H2       0.15647    0.08686    0.44178   1.00
H2       0.16587    0.11183    0.39620   1.00
H2       0.19632    0.07160    0.41102   1.00
H2       0.15548    0.08743    0.55822   1.00
H2       0.17241    0.10806    0.60380   1.00
H2       0.12234    0.11431    0.58898   1.00
C4       0.25067    0.75039    0.52067   1.00
C4       0.24933    0.74961    0.47933   1.00
C3       0.27143    0.72177    0.54244   1.00
C3       0.26373    0.71733    0.45756   1.00
C4       0.23067    0.78017    0.54150   1.00
C4       0.23354    0.78183    0.45850   1.00
C2       0.25030    0.74945    0.60352   1.00
C2       0.25033    0.74946    0.39648   1.00
C3       0.27082    0.72127    0.58310   1.00
C3       0.26447    0.71760    0.41690   1.00
C3       0.23088    0.77890    0.58306   1.00
C3       0.23453    0.78101    0.41694   1.00
H1       0.28930    0.69979    0.52888   1.00
H1       0.27383    0.69086    0.47112   1.00
C5       0.21152    0.81068    0.52065   1.00
C5       0.21669    0.81366    0.47935   1.00
H1       0.28665    0.69892    0.59886   1.00
H1       0.27591    0.69272    0.40114   1.00
H1       0.21664    0.80084    0.60053   1.00
H1       0.22265    0.80431    0.39947   1.00
C6       0.18454    0.83885    0.54234   1.00
C6       0.20578    0.85112    0.45766   1.00
H2       0.15957    0.84742    0.52358   1.00
H2       0.16990    0.82473    0.56737   1.00
C6       0.20708    0.87464    0.55724   1.00
H2       0.21085    0.87702    0.47642   1.00
H2       0.22533    0.85673    0.43263   1.00
C6       0.16352    0.84949    0.44276   1.00
H2       0.22155    0.89026    0.53274   1.00
C6       0.17968    0.90271    0.57832   1.00
H2       0.23060    0.86522    0.57760   1.00
C6       0.15291    0.88726    0.42168   1.00
H2       0.15992    0.82441    0.42240   1.00
H2       0.14276    0.84476    0.46726   1.00
H2       0.15647    0.91314    0.55822   1.00
H2       0.16587    0.88817    0.60380   1.00
H2       0.19632    0.92840    0.58898   1.00
H2       0.15548    0.91257    0.44178   1.00
H2       0.17241    0.89194    0.39620   1.00
H2       0.12234    0.88569    0.41102   1.00
C4       0.25039    1.02067    0.25067   1.00
C4       0.24961    0.97933    0.24933   1.00
C3       0.22177    1.04244    0.27143   1.00
C3       0.21733    0.95756    0.26373   1.00
C4       0.28017    1.04150    0.23067   1.00
C4       0.28183    0.95850    0.23354   1.00
C2       0.24945    1.10352    0.25030   1.00
C2       0.24946    0.89648    0.25033   1.00
C3       0.22127    1.08310    0.27082   1.00
C3       0.21760    0.91690    0.26447   1.00
C3       0.27890    1.08306    0.23088   1.00
C3       0.28101    0.91694    0.23453   1.00
H1       0.19979    1.02888    0.28930   1.00
H1       0.19086    0.97112    0.27383   1.00
C5       0.31068    1.02065    0.21152   1.00
C5       0.31366    0.97935    0.21669   1.00
H1       0.19892    1.09886    0.28665   1.00
H1       0.19272    0.90114    0.27591   1.00
H1       0.30084    1.10053    0.21664   1.00
H1       0.30431    0.89947    0.22265   1.00
C6       0.33885    1.04234    0.18454   1.00
C6       0.35112    0.95766    0.20578   1.00
H2       0.34742    1.02358    0.15957   1.00
H2       0.32473    1.06737    0.16990   1.00
C6       0.37464    1.05724    0.20708   1.00
H2       0.37702    0.97642    0.21085   1.00
H2       0.35673    0.93263    0.22533   1.00
C6       0.34949    0.94276    0.16352   1.00
H2       0.39026    1.03274    0.22155   1.00
C6       0.40271    1.07832    0.17968   1.00
H2       0.36522    1.07760    0.23060   1.00
C6       0.38726    0.92168    0.15291   1.00
H2       0.32441    0.92240    0.15992   1.00
H2       0.34476    0.96726    0.14276   1.00
H2       0.41314    1.05822    0.15647   1.00
H2       0.38817    1.10380    0.16587   1.00
H2       0.42840    1.08898    0.19632   1.00
H2       0.41257    0.94178    0.15548   1.00
H2       0.39194    0.89620    0.17241   1.00
H2       0.38569    0.91102    0.12234   1.00
C4       -0.02067   0.75067    0.24961   1.00
C4       0.02067    0.74933    0.25039   1.00
C3       -0.04244   0.77143    0.27823   1.00
C3       0.04244    0.76373    0.28267   1.00
C4       -0.04150   0.73067    0.21983   1.00
C4       0.04150    0.73354    0.21817   1.00
C2       -0.10352   0.75030    0.25055   1.00
C2       0.10352    0.75033    0.25054   1.00
C3       -0.08310   0.77082    0.27873   1.00
C3       0.08310    0.76447    0.28240   1.00
C3       -0.08306   0.73088    0.22110   1.00
C3       0.08306    0.73453    0.21899   1.00
H1       -0.02888   0.78930    0.30021   1.00
H1       0.02888    0.77383    0.30914   1.00
C5       -0.02065   0.71152    0.18932   1.00
C5       0.02065    0.71669    0.18634   1.00
H1       -0.09886   0.78665    0.30108   1.00
H1       0.09886    0.77591    0.30728   1.00
H1       -0.10053   0.71664    0.19916   1.00
H1       0.10053    0.72265    0.19569   1.00
C6       -0.04234   0.68454    0.16115   1.00
C6       0.04234    0.70578    0.14888   1.00
H2       -0.02358   0.65957    0.15258   1.00
H2       -0.06737   0.66990    0.17527   1.00
C6       -0.05724   0.70708    0.12536   1.00
H2       0.02358    0.71085    0.12298   1.00
H2       0.06737    0.72533    0.14327   1.00
C6       0.05724    0.66352    0.15051   1.00
H2       -0.03274   0.72155    0.10974   1.00
C6       -0.07832   0.67968    0.09729   1.00
H2       -0.07760   0.73060    0.13478   1.00
C6       0.07832    0.65291    0.11274   1.00
H2       0.07760    0.65992    0.17559   1.00
H2       0.03274    0.64276    0.15524   1.00
H2       -0.05822   0.65647    0.08686   1.00
H2       -0.10380   0.66587    0.11183   1.00
H2       -0.08898   0.69632    0.07160   1.00
H2       0.05822    0.65548    0.08743   1.00
H2       0.10380    0.67241    0.10806   1.00
H2       0.08898    0.62234    0.11431   1.00
C4       0.52067    0.75067    0.25039   1.00
C4       0.47933    0.74933    0.24961   1.00
C3       0.54244    0.77143    0.22177   1.00
C3       0.45756    0.76373    0.21733   1.00
C4       0.54150    0.73067    0.28017   1.00
C4       0.45850    0.73354    0.28183   1.00
C2       0.60352    0.75030    0.24945   1.00
C2       0.39648    0.75033    0.24946   1.00
C3       0.58310    0.77082    0.22127   1.00
C3       0.41690    0.76447    0.21760   1.00
C3       0.58306    0.73088    0.27890   1.00
C3       0.41694    0.73453    0.28101   1.00
H1       0.52888    0.78930    0.19979   1.00
H1       0.47112    0.77383    0.19086   1.00
C5       0.52065    0.71152    0.31068   1.00
C5       0.47935    0.71669    0.31366   1.00
H1       0.59886    0.78665    0.19892   1.00
H1       0.40114    0.77591    0.19272   1.00
H1       0.60053    0.71664    0.30084   1.00
H1       0.39947    0.72265    0.30431   1.00
C6       0.54234    0.68454    0.33885   1.00
C6       0.45766    0.70578    0.35112   1.00
H2       0.52358    0.65957    0.34742   1.00
H2       0.56737    0.66990    0.32473   1.00
C6       0.55724    0.70708    0.37464   1.00
H2       0.47642    0.71085    0.37702   1.00
H2       0.43263    0.72533    0.35673   1.00
C6       0.44276    0.66352    0.34949   1.00
H2       0.53274    0.72155    0.39026   1.00
C6       0.57832    0.67968    0.40271   1.00
H2       0.57760    0.73060    0.36522   1.00
C6       0.42168    0.65291    0.38726   1.00
H2       0.42240    0.65992    0.32441   1.00
H2       0.46726    0.64276    0.34476   1.00
H2       0.55822    0.65647    0.41314   1.00
H2       0.60380    0.66587    0.38817   1.00
H2       0.58898    0.69632    0.42840   1.00
H2       0.44178    0.65548    0.41257   1.00
H2       0.39620    0.67241    0.39194   1.00
H2       0.41102    0.62234    0.38569   1.00
C4       0.24961    0.47933    0.25067   1.00
C4       0.25039    0.52067    0.24933   1.00
C3       0.27823    0.45756    0.27143   1.00
C3       0.28267    0.54244    0.26373   1.00
C4       0.21983    0.45850    0.23067   1.00
C4       0.21817    0.54150    0.23354   1.00
C2       0.25055    0.39648    0.25030   1.00
C2       0.25054    0.60352    0.25033   1.00
C3       0.27873    0.41690    0.27082   1.00
C3       0.28240    0.58310    0.26447   1.00
C3       0.22110    0.41694    0.23088   1.00
C3       0.21899    0.58306    0.23453   1.00
H1       0.30021    0.47112    0.28930   1.00
H1       0.30914    0.52888    0.27383   1.00
C5       0.18932    0.47935    0.21152   1.00
C5       0.18634    0.52065    0.21669   1.00
H1       0.30108    0.40114    0.28665   1.00
H1       0.30728    0.59886    0.27591   1.00
H1       0.19916    0.39947    0.21664   1.00
H1       0.19569    0.60053    0.22265   1.00
C6       0.16115    0.45766    0.18454   1.00
C6       0.14888    0.54234    0.20578   1.00
H2       0.15258    0.47642    0.15957   1.00
H2       0.17527    0.43263    0.16990   1.00
C6       0.12536    0.44276    0.20708   1.00
H2       0.12298    0.52358    0.21085   1.00
H2       0.14327    0.56737    0.22533   1.00
C6       0.15051    0.55724    0.16352   1.00
H2       0.10974    0.46726    0.22155   1.00
C6       0.09729    0.42168    0.17968   1.00
H2       0.13478    0.42240    0.23060   1.00
C6       0.11274    0.57832    0.15291   1.00
H2       0.17559    0.57760    0.15992   1.00
H2       0.15524    0.53274    0.14276   1.00
H2       0.08686    0.44178    0.15647   1.00
H2       0.11183    0.39620    0.16587   1.00
H2       0.07160    0.41102    0.19632   1.00
H2       0.08743    0.55822    0.15548   1.00
H2       0.10806    0.60380    0.17241   1.00
H2       0.11431    0.58898    0.12234   1.00
C4       0.25067    0.74961    -0.02067   1.00
C4       0.24933    0.75039    0.02067   1.00
C3       0.27143    0.77823    -0.04244   1.00
C3       0.26373    0.78267    0.04244   1.00
C4       0.23067    0.71983    -0.04150   1.00
C4       0.23354    0.71817    0.04150   1.00
C2       0.25030    0.75055    -0.10352   1.00
C2       0.25033    0.75054    0.10352   1.00
C3       0.27082    0.77873    -0.08310   1.00
C3       0.26447    0.78240    0.08310   1.00
C3       0.23088    0.72110    -0.08306   1.00
C3       0.23453    0.71899    0.08306   1.00
H1       0.28930    0.80021    -0.02888   1.00
H1       0.27383    0.80914    0.02888   1.00
C5       0.21152    0.68932    -0.02065   1.00
C5       0.21669    0.68634    0.02065   1.00
H1       0.28665    0.80108    -0.09886   1.00
H1       0.27591    0.80728    0.09886   1.00
H1       0.21664    0.69916    -0.10053   1.00
H1       0.22265    0.69569    0.10053   1.00
C6       0.18454    0.66115    -0.04234   1.00
C6       0.20578    0.64888    0.04234   1.00
H2       0.15957    0.65258    -0.02358   1.00
H2       0.16990    0.67527    -0.06737   1.00
C6       0.20708    0.62536    -0.05724   1.00
H2       0.21085    0.62298    0.02358   1.00
H2       0.22533    0.64327    0.06737   1.00
C6       0.16352    0.65051    0.05724   1.00
H2       0.22155    0.60974    -0.03274   1.00
C6       0.17968    0.59729    -0.07832   1.00
H2       0.23060    0.63478    -0.07760   1.00
C6       0.15291    0.61274    0.07832   1.00
H2       0.15992    0.67559    0.07760   1.00
H2       0.14276    0.65524    0.03274   1.00
H2       0.15647    0.58686    -0.05822   1.00
H2       0.16587    0.61183    -0.10380   1.00
H2       0.19632    0.57160    -0.08898   1.00
H2       0.15548    0.58743    0.05822   1.00
H2       0.17241    0.60806    0.10380   1.00
H2       0.12234    0.61431    0.08898   1.00
C4       0.75067    0.25039    0.52067   1.00
C4       0.74933    0.24961    0.47933   1.00
C3       0.77143    0.22177    0.54244   1.00
C3       0.76373    0.21733    0.45756   1.00
C4       0.73067    0.28017    0.54150   1.00
C4       0.73354    0.28183    0.45850   1.00
C2       0.75030    0.24945    0.60352   1.00
C2       0.75033    0.24946    0.39648   1.00
C3       0.77082    0.22127    0.58310   1.00
C3       0.76447    0.21760    0.41690   1.00
C3       0.73088    0.27890    0.58306   1.00
C3       0.73453    0.28101    0.41694   1.00
H1       0.78930    0.19979    0.52888   1.00
H1       0.77383    0.19086    0.47112   1.00
C5       0.71152    0.31068    0.52065   1.00
C5       0.71669    0.31366    0.47935   1.00
H1       0.78665    0.19892    0.59886   1.00
H1       0.77591    0.19272    0.40114   1.00
H1       0.71664    0.30084    0.60053   1.00
H1       0.72265    0.30431    0.39947   1.00
C6       0.68454    0.33885    0.54234   1.00
C6       0.70578    0.35112    0.45766   1.00
H2       0.65957    0.34742    0.52358   1.00
H2       0.66990    0.32473    0.56737   1.00
C6       0.70708    0.37464    0.55724   1.00
H2       0.71085    0.37702    0.47642   1.00
H2       0.72533    0.35673    0.43263   1.00
C6       0.66352    0.34949    0.44276   1.00
H2       0.72155    0.39026    0.53274   1.00
C6       0.67968    0.40271    0.57832   1.00
H2       0.73060    0.36522    0.57760   1.00
C6       0.65291    0.38726    0.42168   1.00
H2       0.65992    0.32441    0.42240   1.00
H2       0.64276    0.34476    0.46726   1.00
H2       0.65647    0.41314    0.55822   1.00
H2       0.66587    0.38817    0.60380   1.00
H2       0.69632    0.42840    0.58898   1.00
H2       0.65548    0.41257    0.44178   1.00
H2       0.67241    0.39194    0.39620   1.00
H2       0.62234    0.38569    0.41102   1.00
C4       0.75039    0.52067    0.25067   1.00
C4       0.74961    0.47933    0.24933   1.00
C3       0.72177    0.54244    0.27143   1.00
C3       0.71733    0.45756    0.26373   1.00
C4       0.78017    0.54150    0.23067   1.00
C4       0.78183    0.45850    0.23354   1.00
C2       0.74945    0.60352    0.25030   1.00
C2       0.74946    0.39648    0.25033   1.00
C3       0.72127    0.58310    0.27082   1.00
C3       0.71760    0.41690    0.26447   1.00
C3       0.77890    0.58306    0.23088   1.00
C3       0.78101    0.41694    0.23453   1.00
H1       0.69979    0.52888    0.28930   1.00
H1       0.69086    0.47112    0.27383   1.00
C5       0.81068    0.52065    0.21152   1.00
C5       0.81366    0.47935    0.21669   1.00
H1       0.69892    0.59886    0.28665   1.00
H1       0.69272    0.40114    0.27591   1.00
H1       0.80084    0.60053    0.21664   1.00
H1       0.80431    0.39947    0.22265   1.00
C6       0.83885    0.54234    0.18454   1.00
C6       0.85112    0.45766    0.20578   1.00
H2       0.84742    0.52358    0.15957   1.00
H2       0.82473    0.56737    0.16990   1.00
C6       0.87464    0.55724    0.20708   1.00
H2       0.87702    0.47642    0.21085   1.00
H2       0.85673    0.43263    0.22533   1.00
C6       0.84949    0.44276    0.16352   1.00
H2       0.89026    0.53274    0.22155   1.00
C6       0.90271    0.57832    0.17968   1.00
H2       0.86522    0.57760    0.23060   1.00
C6       0.88726    0.42168    0.15291   1.00
H2       0.82441    0.42240    0.15992   1.00
H2       0.84476    0.46726    0.14276   1.00
H2       0.91314    0.55822    0.15647   1.00
H2       0.88817    0.60380    0.16587   1.00
H2       0.92840    0.58898    0.19632   1.00
H2       0.91257    0.44178    0.15548   1.00
H2       0.89194    0.39620    0.17241   1.00
H2       0.88569    0.41102    0.12234   1.00
C4       0.47933    0.25067    0.24961   1.00
C4       0.52067    0.24933    0.25039   1.00
C3       0.45756    0.27143    0.27823   1.00
C3       0.54244    0.26373    0.28267   1.00
C4       0.45850    0.23067    0.21983   1.00
C4       0.54150    0.23354    0.21817   1.00
C2       0.39648    0.25030    0.25055   1.00
C2       0.60352    0.25033    0.25054   1.00
C3       0.41690    0.27082    0.27873   1.00
C3       0.58310    0.26447    0.28240   1.00
C3       0.41694    0.23088    0.22110   1.00
C3       0.58306    0.23453    0.21899   1.00
H1       0.47112    0.28930    0.30021   1.00
H1       0.52888    0.27383    0.30914   1.00
C5       0.47935    0.21152    0.18932   1.00
C5       0.52065    0.21669    0.18634   1.00
H1       0.40114    0.28665    0.30108   1.00
H1       0.59886    0.27591    0.30728   1.00
H1       0.39947    0.21664    0.19916   1.00
H1       0.60053    0.22265    0.19569   1.00
C6       0.45766    0.18454    0.16115   1.00
C6       0.54234    0.20578    0.14888   1.00
H2       0.47642    0.15957    0.15258   1.00
H2       0.43263    0.16990    0.17527   1.00
C6       0.44276    0.20708    0.12536   1.00
H2       0.52358    0.21085    0.12298   1.00
H2       0.56737    0.22533    0.14327   1.00
C6       0.55724    0.16352    0.15051   1.00
H2       0.46726    0.22155    0.10974   1.00
C6       0.42168    0.17968    0.09729   1.00
H2       0.42240    0.23060    0.13478   1.00
C6       0.57832    0.15291    0.11274   1.00
H2       0.57760    0.15992    0.17559   1.00
H2       0.53274    0.14276    0.15524   1.00
H2       0.44178    0.15647    0.08686   1.00
H2       0.39620    0.16587    0.11183   1.00
H2       0.41102    0.19632    0.07160   1.00
H2       0.55822    0.15548    0.08743   1.00
H2       0.60380    0.17241    0.10806   1.00
H2       0.58898    0.12234    0.11431   1.00
C4       1.02067    0.25067    0.25039   1.00
C4       0.97933    0.24933    0.24961   1.00
C3       1.04244    0.27143    0.22177   1.00
C3       0.95756    0.26373    0.21733   1.00
C4       1.04150    0.23067    0.28017   1.00
C4       0.95850    0.23354    0.28183   1.00
C2       1.10352    0.25030    0.24945   1.00
C2       0.89648    0.25033    0.24946   1.00
C3       1.08310    0.27082    0.22127   1.00
C3       0.91690    0.26447    0.21760   1.00
C3       1.08306    0.23088    0.27890   1.00
C3       0.91694    0.23453    0.28101   1.00
H1       1.02888    0.28930    0.19979   1.00
H1       0.97112    0.27383    0.19086   1.00
C5       1.02065    0.21152    0.31068   1.00
C5       0.97935    0.21669    0.31366   1.00
H1       1.09886    0.28665    0.19892   1.00
H1       0.90114    0.27591    0.19272   1.00
H1       1.10053    0.21664    0.30084   1.00
H1       0.89947    0.22265    0.30431   1.00
C6       1.04234    0.18454    0.33885   1.00
C6       0.95766    0.20578    0.35112   1.00
H2       1.02358    0.15957    0.34742   1.00
H2       1.06737    0.16990    0.32473   1.00
C6       1.05724    0.20708    0.37464   1.00
H2       0.97642    0.21085    0.37702   1.00
H2       0.93263    0.22533    0.35673   1.00
C6       0.94276    0.16352    0.34949   1.00
H2       1.03274    0.22155    0.39026   1.00
C6       1.07832    0.17968    0.40271   1.00
H2       1.07760    0.23060    0.36522   1.00
C6       0.92168    0.15291    0.38726   1.00
H2       0.92240    0.15992    0.32441   1.00
H2       0.96726    0.14276    0.34476   1.00
H2       1.05822    0.15647    0.41314   1.00
H2       1.10380    0.16587    0.38817   1.00
H2       1.08898    0.19632    0.42840   1.00
H2       0.94178    0.15548    0.41257   1.00
H2       0.89620    0.17241    0.39194   1.00
H2       0.91102    0.12234    0.38569   1.00
C4       0.74961    -0.02067   0.25067   1.00
C4       0.75039    0.02067    0.24933   1.00
C3       0.77823    -0.04244   0.27143   1.00
C3       0.78267    0.04244    0.26373   1.00
C4       0.71983    -0.04150   0.23067   1.00
C4       0.71817    0.04150    0.23354   1.00
C2       0.75055    -0.10352   0.25030   1.00
C2       0.75054    0.10352    0.25033   1.00
C3       0.77873    -0.08310   0.27082   1.00
C3       0.78240    0.08310    0.26447   1.00
C3       0.72110    -0.08306   0.23088   1.00
C3       0.71899    0.08306    0.23453   1.00
H1       0.80021    -0.02888   0.28930   1.00
H1       0.80914    0.02888    0.27383   1.00
C5       0.68932    -0.02065   0.21152   1.00
C5       0.68634    0.02065    0.21669   1.00
H1       0.80108    -0.09886   0.28665   1.00
H1       0.80728    0.09886    0.27591   1.00
H1       0.69916    -0.10053   0.21664   1.00
H1       0.69569    0.10053    0.22265   1.00
C6       0.66115    -0.04234   0.18454   1.00
C6       0.64888    0.04234    0.20578   1.00
H2       0.65258    -0.02358   0.15957   1.00
H2       0.67527    -0.06737   0.16990   1.00
C6       0.62536    -0.05724   0.20708   1.00
H2       0.62298    0.02358    0.21085   1.00
H2       0.64327    0.06737    0.22533   1.00
C6       0.65051    0.05724    0.16352   1.00
H2       0.60974    -0.03274   0.22155   1.00
C6       0.59729    -0.07832   0.17968   1.00
H2       0.63478    -0.07760   0.23060   1.00
C6       0.61274    0.07832    0.15291   1.00
H2       0.67559    0.07760    0.15992   1.00
H2       0.65524    0.03274    0.14276   1.00
H2       0.58686    -0.05822   0.15647   1.00
H2       0.61183    -0.10380   0.16587   1.00
H2       0.57160    -0.08898   0.19632   1.00
H2       0.58743    0.05822    0.15548   1.00
H2       0.60806    0.10380    0.17241   1.00
H2       0.61431    0.08898    0.12234   1.00
C4       0.75067    0.24961    -0.02067   1.00
C4       0.74933    0.25039    0.02067   1.00
C3       0.77143    0.27823    -0.04244   1.00
C3       0.76373    0.28267    0.04244   1.00
C4       0.73067    0.21983    -0.04150   1.00
C4       0.73354    0.21817    0.04150   1.00
C2       0.75030    0.25055    -0.10352   1.00
C2       0.75033    0.25054    0.10352   1.00
C3       0.77082    0.27873    -0.08310   1.00
C3       0.76447    0.28240    0.08310   1.00
C3       0.73088    0.22110    -0.08306   1.00
C3       0.73453    0.21899    0.08306   1.00
H1       0.78930    0.30021    -0.02888   1.00
H1       0.77383    0.30914    0.02888   1.00
C5       0.71152    0.18932    -0.02065   1.00
C5       0.71669    0.18634    0.02065   1.00
H1       0.78665    0.30108    -0.09886   1.00
H1       0.77591    0.30728    0.09886   1.00
H1       0.71664    0.19916    -0.10053   1.00
H1       0.72265    0.19569    0.10053   1.00
C6       0.68454    0.16115    -0.04234   1.00
C6       0.70578    0.14888    0.04234   1.00
H2       0.65957    0.15258    -0.02358   1.00
H2       0.66990    0.17527    -0.06737   1.00
C6       0.70708    0.12536    -0.05724   1.00
H2       0.71085    0.12298    0.02358   1.00
H2       0.72533    0.14327    0.06737   1.00
C6       0.66352    0.15051    0.05724   1.00
H2       0.72155    0.10974    -0.03274   1.00
C6       0.67968    0.09729    -0.07832   1.00
H2       0.73060    0.13478    -0.07760   1.00
C6       0.65291    0.11274    0.07832   1.00
H2       0.65992    0.17559    0.07760   1.00
H2       0.64276    0.15524    0.03274   1.00
H2       0.65647    0.08686    -0.05822   1.00
H2       0.66587    0.11183    -0.10380   1.00
H2       0.69632    0.07160    -0.08898   1.00
H2       0.65548    0.08743    0.05822   1.00
H2       0.67241    0.10806    0.10380   1.00
H2       0.62234    0.11431    0.08898   1.00
