data_IRMOF10_SG202_Ligand7_label_j.

_audit_creation_method             'generated by an auxiliary program of Tobunporous'

_symmetry_space_group_name_H-M     'P 1'
_symmetry_Int_Tables_number        1
_symmetry_cell_setting             triclinic

_cell_length_a                    34.2800
_cell_length_b                    34.2800
_cell_length_c                    34.2800
_cell_angle_alpha                 90.0000
_cell_angle_beta                  90.0000
_cell_angle_gamma                 90.0000

loop_
_atom_site_label
_atom_site_fract_x
_atom_site_fract_y
_atom_site_fract_z
_atom_site_occupancy
O1       0.75000    0.75000    0.75000   1.00
Zn1      0.71720    0.78280    0.78280   1.00
Zn1      0.78280    0.71720    0.78280   1.00
Zn1      0.78280    0.78280    0.71720   1.00
Zn1      0.71720    0.71720    0.71720   1.00
O2       0.72650    0.77350    0.83820   1.00
O2       0.72650    0.83820    0.77350   1.00
O2       0.66180    0.77350    0.77350   1.00
O2       0.77350    0.72650    0.83820   1.00
O2       0.83820    0.72650    0.77350   1.00
O2       0.77350    0.66180    0.77350   1.00
O2       0.77350    0.83820    0.72650   1.00
O2       0.83820    0.77350    0.72650   1.00
O2       0.77350    0.77350    0.66180   1.00
O2       0.66180    0.72650    0.72650   1.00
O2       0.72650    0.66180    0.72650   1.00
O2       0.72650    0.72650    0.66180   1.00
C1       0.75000    0.75000    0.85520   1.00
C1       0.75000    0.85520    0.75000   1.00
C1       0.64480    0.75000    0.75000   1.00
C1       0.85520    0.75000    0.75000   1.00
C1       0.75000    0.64480    0.75000   1.00
C1       0.75000    0.75000    0.64480   1.00
O1       0.25000    0.25000    0.75000   1.00
Zn1      0.21720    0.28280    0.78280   1.00
Zn1      0.28280    0.21720    0.78280   1.00
Zn1      0.28280    0.28280    0.71720   1.00
Zn1      0.21720    0.21720    0.71720   1.00
O2       0.22650    0.27350    0.83820   1.00
O2       0.22650    0.33820    0.77350   1.00
O2       0.16180    0.27350    0.77350   1.00
O2       0.27350    0.22650    0.83820   1.00
O2       0.33820    0.22650    0.77350   1.00
O2       0.27350    0.16180    0.77350   1.00
O2       0.27350    0.33820    0.72650   1.00
O2       0.33820    0.27350    0.72650   1.00
O2       0.27350    0.27350    0.66180   1.00
O2       0.16180    0.22650    0.72650   1.00
O2       0.22650    0.16180    0.72650   1.00
O2       0.22650    0.22650    0.66180   1.00
C1       0.25000    0.25000    0.85520   1.00
C1       0.25000    0.35520    0.75000   1.00
C1       0.14480    0.25000    0.75000   1.00
C1       0.35520    0.25000    0.75000   1.00
C1       0.25000    0.14480    0.75000   1.00
C1       0.25000    0.25000    0.64480   1.00
O1       0.25000    0.75000    0.25000   1.00
Zn1      0.21720    0.78280    0.28280   1.00
Zn1      0.28280    0.71720    0.28280   1.00
Zn1      0.28280    0.78280    0.21720   1.00
Zn1      0.21720    0.71720    0.21720   1.00
O2       0.22650    0.77350    0.33820   1.00
O2       0.22650    0.83820    0.27350   1.00
O2       0.16180    0.77350    0.27350   1.00
O2       0.27350    0.72650    0.33820   1.00
O2       0.33820    0.72650    0.27350   1.00
O2       0.27350    0.66180    0.27350   1.00
O2       0.27350    0.83820    0.22650   1.00
O2       0.33820    0.77350    0.22650   1.00
O2       0.27350    0.77350    0.16180   1.00
O2       0.16180    0.72650    0.22650   1.00
O2       0.22650    0.66180    0.22650   1.00
O2       0.22650    0.72650    0.16180   1.00
C1       0.25000    0.75000    0.35520   1.00
C1       0.25000    0.85520    0.25000   1.00
C1       0.14480    0.75000    0.25000   1.00
C1       0.35520    0.75000    0.25000   1.00
C1       0.25000    0.64480    0.25000   1.00
C1       0.25000    0.75000    0.14480   1.00
O1       0.75000    0.25000    0.25000   1.00
Zn1      0.71720    0.28280    0.28280   1.00
Zn1      0.78280    0.21720    0.28280   1.00
Zn1      0.78280    0.28280    0.21720   1.00
Zn1      0.71720    0.21720    0.21720   1.00
O2       0.72650    0.27350    0.33820   1.00
O2       0.72650    0.33820    0.27350   1.00
O2       0.66180    0.27350    0.27350   1.00
O2       0.77350    0.22650    0.33820   1.00
O2       0.83820    0.22650    0.27350   1.00
O2       0.77350    0.16180    0.27350   1.00
O2       0.77350    0.33820    0.22650   1.00
O2       0.83820    0.27350    0.22650   1.00
O2       0.77350    0.27350    0.16180   1.00
O2       0.66180    0.22650    0.22650   1.00
O2       0.72650    0.16180    0.22650   1.00
O2       0.72650    0.22650    0.16180   1.00
C1       0.75000    0.25000    0.35520   1.00
C1       0.75000    0.35520    0.25000   1.00
C1       0.64480    0.25000    0.25000   1.00
C1       0.85520    0.25000    0.25000   1.00
C1       0.75000    0.14480    0.25000   1.00
C1       0.75000    0.25000    0.14480   1.00
O1       0.25000    0.25000    0.25000   1.00
Zn1      0.28280    0.21720    0.21720   1.00
Zn1      0.21720    0.28280    0.21720   1.00
Zn1      0.21720    0.21720    0.28280   1.00
Zn1      0.28280    0.28280    0.28280   1.00
O2       0.27350    0.22650    0.16180   1.00
O2       0.27350    0.16180    0.22650   1.00
O2       0.33820    0.22650    0.22650   1.00
O2       0.22650    0.27350    0.16180   1.00
O2       0.16180    0.27350    0.22650   1.00
O2       0.22650    0.33820    0.22650   1.00
O2       0.22650    0.16180    0.27350   1.00
O2       0.16180    0.22650    0.27350   1.00
O2       0.22650    0.22650    0.33820   1.00
O2       0.33820    0.27350    0.27350   1.00
O2       0.27350    0.33820    0.27350   1.00
O2       0.27350    0.27350    0.33820   1.00
C1       0.25000    0.25000    0.14480   1.00
C1       0.25000    0.14480    0.25000   1.00
C1       0.35520    0.25000    0.25000   1.00
C1       0.14480    0.25000    0.25000   1.00
C1       0.25000    0.35520    0.25000   1.00
C1       0.25000    0.25000    0.35520   1.00
O1       0.75000    0.75000    0.25000   1.00
Zn1      0.78280    0.71720    0.21720   1.00
Zn1      0.71720    0.78280    0.21720   1.00
Zn1      0.71720    0.71720    0.28280   1.00
Zn1      0.78280    0.78280    0.28280   1.00
O2       0.77350    0.72650    0.16180   1.00
O2       0.77350    0.66180    0.22650   1.00
O2       0.83820    0.72650    0.22650   1.00
O2       0.72650    0.77350    0.16180   1.00
O2       0.66180    0.77350    0.22650   1.00
O2       0.72650    0.83820    0.22650   1.00
O2       0.72650    0.66180    0.27350   1.00
O2       0.66180    0.72650    0.27350   1.00
O2       0.72650    0.72650    0.33820   1.00
O2       0.83820    0.77350    0.27350   1.00
O2       0.77350    0.83820    0.27350   1.00
O2       0.77350    0.77350    0.33820   1.00
C1       0.75000    0.75000    0.14480   1.00
C1       0.75000    0.64480    0.25000   1.00
C1       0.85520    0.75000    0.25000   1.00
C1       0.64480    0.75000    0.25000   1.00
C1       0.75000    0.85520    0.25000   1.00
C1       0.75000    0.75000    0.35520   1.00
O1       0.75000    0.25000    0.75000   1.00
Zn1      0.78280    0.21720    0.71720   1.00
Zn1      0.71720    0.28280    0.71720   1.00
Zn1      0.71720    0.21720    0.78280   1.00
Zn1      0.78280    0.28280    0.78280   1.00
O2       0.77350    0.22650    0.66180   1.00
O2       0.77350    0.16180    0.72650   1.00
O2       0.83820    0.22650    0.72650   1.00
O2       0.72650    0.27350    0.66180   1.00
O2       0.66180    0.27350    0.72650   1.00
O2       0.72650    0.33820    0.72650   1.00
O2       0.72650    0.16180    0.77350   1.00
O2       0.66180    0.22650    0.77350   1.00
O2       0.72650    0.22650    0.83820   1.00
O2       0.83820    0.27350    0.77350   1.00
O2       0.77350    0.33820    0.77350   1.00
O2       0.77350    0.27350    0.83820   1.00
C1       0.75000    0.25000    0.64480   1.00
C1       0.75000    0.14480    0.75000   1.00
C1       0.85520    0.25000    0.75000   1.00
C1       0.64480    0.25000    0.75000   1.00
C1       0.75000    0.35520    0.75000   1.00
C1       0.75000    0.25000    0.85520   1.00
O1       0.25000    0.75000    0.75000   1.00
Zn1      0.28280    0.71720    0.71720   1.00
Zn1      0.21720    0.78280    0.71720   1.00
Zn1      0.21720    0.71720    0.78280   1.00
Zn1      0.28280    0.78280    0.78280   1.00
O2       0.27350    0.72650    0.66180   1.00
O2       0.27350    0.66180    0.72650   1.00
O2       0.33820    0.72650    0.72650   1.00
O2       0.22650    0.77350    0.66180   1.00
O2       0.16180    0.77350    0.72650   1.00
O2       0.22650    0.83820    0.72650   1.00
O2       0.22650    0.66180    0.77350   1.00
O2       0.16180    0.72650    0.77350   1.00
O2       0.22650    0.72650    0.83820   1.00
O2       0.33820    0.77350    0.77350   1.00
O2       0.27350    0.83820    0.77350   1.00
O2       0.27350    0.77350    0.83820   1.00
C1       0.25000    0.75000    0.64480   1.00
C1       0.25000    0.64480    0.75000   1.00
C1       0.35520    0.75000    0.75000   1.00
C1       0.14480    0.75000    0.75000   1.00
C1       0.25000    0.85520    0.75000   1.00
C1       0.25000    0.75000    0.85520   1.00
C5       0.87570    0.76652    1.13218   1.00
H2       0.86240    0.79181    1.14745   1.00
H2       0.89669    0.77906    1.11090   1.00
C5       0.89717    0.74061    1.16194   1.00
C5       0.93784    0.75729    1.17123   1.00
H2       0.90050    0.71053    1.15015   1.00
O3       0.77109    0.68239    0.98000   1.00
C4       0.74968    0.75028    1.02100   1.00
C3c      0.78282    0.76132    1.04243   1.00
H1       0.80901    0.77017    1.02725   1.00
C3d      0.71567    0.73938    1.04135   1.00
C3       0.78295    0.76062    1.08354   1.00
O2       0.81469    0.77632    1.10248   1.00
C3       0.71594    0.73793    1.08227   1.00
H1       0.68962    0.72806    1.09657   1.00
C2       0.74933    0.74860    1.10439   1.00
C5       0.74089    0.65439    0.97879   1.00
H2       0.73373    0.64533    0.94838   1.00
H2       0.71374    0.66582    0.99266   1.00
C5       0.75478    0.61861    1.00129   1.00
H2       0.76298    0.62786    1.03137   1.00
H2       0.78168    0.60723    0.98698   1.00
C5       0.72290    0.58699    1.00262   1.00
H2       0.71438    0.57781    0.97268   1.00
H2       0.69652    0.59788    1.01811   1.00
C5       0.73807    0.55077    1.02445   1.00
C5       0.65909    0.75702    1.01105   1.00
C5       0.84218    0.74666    1.11070   1.00
H2       0.67441    0.77731    0.99088   1.00
H2       0.64911    0.77378    1.03712   1.00
H2       0.85286    0.73329    1.08300   1.00
H2       0.82962    0.72268    1.12895   1.00
H2       0.88108    0.73934    1.19030   1.00
H2       0.61747    0.78302    0.94247   1.00
H2       0.59320    0.79664    0.98763   1.00
C2       0.74887    0.74757    0.89605   1.00
C3       0.74004    0.78253    0.91597   1.00
O2       0.72188    0.81289    0.89674   1.00
C3       0.75973    0.71450    0.91826   1.00
H1       0.76764    0.68759    0.90385   1.00
C3a      0.74124    0.78342    0.95713   1.00
H1       0.73224    0.80975    0.97202   1.00
C3b      0.75968    0.71512    0.95922   1.00
C4       0.75032    0.74972    0.97900   1.00
O3       0.68328    0.72544    1.02167   1.00
C5       0.74926    0.84212    0.88720   1.00
H2       0.76367    0.85399    0.91391   1.00
C5       0.72694    0.87471    0.86674   1.00
H2       0.77220    0.83052    0.86726   1.00
H2       0.71210    0.89276    0.88932   1.00
H2       0.70346    0.86082    0.84907   1.00
C5       0.75320    0.90033    0.84082   1.00
H2       0.77819    0.91144    0.85824   1.00
C5       0.73023    0.93534    0.82453   1.00
H2       0.76439    0.88369    0.81507   1.00
C5       0.62357    0.74026    0.99017   1.00
H2       0.60471    0.72550    1.01215   1.00
H2       0.63378    0.71732    0.96952   1.00
C5       0.60059    0.77186    0.96800   1.00
C5       0.56219    0.75467    0.95225   1.00
H2       0.93485    0.78238    1.19286   1.00
C5       0.96351    0.72506    1.18912   1.00
H2       0.95191    0.76841    1.14323   1.00
C5       0.70375    0.52319    1.03337   1.00
H2       0.76037    0.53495    1.00551   1.00
H2       0.75241    0.56019    1.05293   1.00
C5       0.75866    0.96410    0.80497   1.00
H2       0.70813    0.92463    0.80211   1.00
H2       0.71429    0.95066    0.84937   1.00
H2       0.56857    0.72635    0.93602   1.00
H2       0.54158    0.74851    0.97761   1.00
C5       0.54304    0.78404    0.92417   1.00
H2       0.94414    0.70086    1.20116   1.00
H2       0.98357    0.71259    1.16571   1.00
H2       0.98184    0.73788    1.21374   1.00
H2       0.67633    0.53435    1.01820   1.00
H2       0.71089    0.49266    1.02229   1.00
H2       0.69860    0.52215    1.06621   1.00
H2       0.78230    0.94712    0.78889   1.00
H2       0.74204    0.98314    0.78336   1.00
H2       0.77268    0.98334    0.82819   1.00
H2       0.55302    0.77777    0.89307   1.00
H2       0.50996    0.78116    0.92598   1.00
H2       0.55196    0.81493    0.93266   1.00
C5       0.76652    1.13218    0.87570   1.00
H2       0.79181    1.14745    0.86240   1.00
H2       0.77906    1.11090    0.89669   1.00
C5       0.74061    1.16194    0.89717   1.00
C5       0.75729    1.17123    0.93784   1.00
H2       0.71053    1.15015    0.90050   1.00
O3       0.68239    0.98000    0.77109   1.00
C4       0.75028    1.02100    0.74968   1.00
C3c      0.76132    1.04243    0.78282   1.00
H1       0.77017    1.02725    0.80901   1.00
C3d      0.73938    1.04135    0.71567   1.00
C3       0.76062    1.08354    0.78295   1.00
O2       0.77632    1.10248    0.81469   1.00
C3       0.73793    1.08227    0.71594   1.00
H1       0.72806    1.09657    0.68962   1.00
C2       0.74860    1.10439    0.74933   1.00
C5       0.65439    0.97879    0.74089   1.00
H2       0.64533    0.94838    0.73373   1.00
H2       0.66582    0.99266    0.71374   1.00
C5       0.61861    1.00129    0.75478   1.00
H2       0.62786    1.03137    0.76298   1.00
H2       0.60723    0.98698    0.78168   1.00
C5       0.58699    1.00262    0.72290   1.00
H2       0.57781    0.97268    0.71438   1.00
H2       0.59788    1.01811    0.69652   1.00
C5       0.55077    1.02445    0.73807   1.00
C5       0.75702    1.01105    0.65909   1.00
C5       0.74666    1.11070    0.84218   1.00
H2       0.77731    0.99088    0.67441   1.00
H2       0.77378    1.03712    0.64911   1.00
H2       0.73329    1.08300    0.85286   1.00
H2       0.72268    1.12895    0.82962   1.00
H2       0.73934    1.19030    0.88108   1.00
H2       0.78302    0.94247    0.61747   1.00
H2       0.79664    0.98763    0.59320   1.00
C2       0.74757    0.89605    0.74887   1.00
C3       0.78253    0.91597    0.74004   1.00
O2       0.81289    0.89674    0.72188   1.00
C3       0.71450    0.91826    0.75973   1.00
H1       0.68759    0.90385    0.76764   1.00
C3a      0.78342    0.95713    0.74124   1.00
H1       0.80975    0.97202    0.73224   1.00
C3b      0.71512    0.95922    0.75968   1.00
C4       0.74972    0.97900    0.75032   1.00
O3       0.72544    1.02167    0.68328   1.00
C5       0.84212    0.88720    0.74926   1.00
H2       0.85399    0.91391    0.76367   1.00
C5       0.87471    0.86674    0.72694   1.00
H2       0.83052    0.86726    0.77220   1.00
H2       0.89276    0.88932    0.71210   1.00
H2       0.86082    0.84907    0.70346   1.00
C5       0.90033    0.84082    0.75320   1.00
H2       0.91144    0.85824    0.77819   1.00
C5       0.93534    0.82453    0.73023   1.00
H2       0.88369    0.81507    0.76439   1.00
C5       0.74026    0.99017    0.62357   1.00
H2       0.72550    1.01215    0.60471   1.00
H2       0.71732    0.96952    0.63378   1.00
C5       0.77186    0.96800    0.60059   1.00
C5       0.75467    0.95225    0.56219   1.00
H2       0.78238    1.19286    0.93485   1.00
C5       0.72506    1.18912    0.96351   1.00
H2       0.76841    1.14323    0.95191   1.00
C5       0.52319    1.03337    0.70375   1.00
H2       0.53495    1.00551    0.76037   1.00
H2       0.56019    1.05293    0.75241   1.00
C5       0.96410    0.80497    0.75866   1.00
H2       0.92463    0.80211    0.70813   1.00
H2       0.95066    0.84937    0.71429   1.00
H2       0.72635    0.93602    0.56857   1.00
H2       0.74851    0.97761    0.54158   1.00
C5       0.78404    0.92417    0.54304   1.00
H2       0.70086    1.20116    0.94414   1.00
H2       0.71259    1.16571    0.98357   1.00
H2       0.73788    1.21374    0.98184   1.00
H2       0.53435    1.01820    0.67633   1.00
H2       0.49266    1.02229    0.71089   1.00
H2       0.52215    1.06621    0.69860   1.00
H2       0.94712    0.78889    0.78230   1.00
H2       0.98314    0.78336    0.74204   1.00
H2       0.98334    0.82819    0.77268   1.00
H2       0.77777    0.89307    0.55302   1.00
H2       0.78116    0.92598    0.50996   1.00
H2       0.81493    0.93266    0.55196   1.00
C5       0.36782    0.87570    0.73348   1.00
H2       0.35255    0.86240    0.70819   1.00
H2       0.38910    0.89669    0.72094   1.00
C5       0.33806    0.89717    0.75939   1.00
C5       0.32877    0.93784    0.74271   1.00
H2       0.34985    0.90050    0.78947   1.00
O3       0.52000    0.77109    0.81761   1.00
C4       0.47900    0.74968    0.74972   1.00
C3c      0.45757    0.78282    0.73868   1.00
H1       0.47275    0.80901    0.72983   1.00
C3d      0.45865    0.71567    0.76062   1.00
C3       0.41646    0.78295    0.73938   1.00
O2       0.39752    0.81469    0.72368   1.00
C3       0.41773    0.71594    0.76207   1.00
H1       0.40343    0.68962    0.77194   1.00
C2       0.39561    0.74933    0.75140   1.00
C5       0.52121    0.74089    0.84561   1.00
H2       0.55162    0.73373    0.85467   1.00
H2       0.50734    0.71374    0.83418   1.00
C5       0.49871    0.75478    0.88139   1.00
H2       0.46863    0.76298    0.87214   1.00
H2       0.51302    0.78168    0.89277   1.00
C5       0.49738    0.72290    0.91301   1.00
H2       0.52732    0.71438    0.92219   1.00
H2       0.48189    0.69652    0.90212   1.00
C5       0.47555    0.73807    0.94923   1.00
C5       0.48895    0.65909    0.74298   1.00
C5       0.38930    0.84218    0.75334   1.00
H2       0.50912    0.67441    0.72269   1.00
H2       0.46288    0.64911    0.72622   1.00
H2       0.41700    0.85286    0.76671   1.00
H2       0.37105    0.82962    0.77732   1.00
H2       0.30970    0.88108    0.76066   1.00
H2       0.55753    0.61747    0.71698   1.00
H2       0.51237    0.59320    0.70336   1.00
C2       0.60395    0.74887    0.75243   1.00
C3       0.58403    0.74004    0.71747   1.00
O2       0.60326    0.72188    0.68711   1.00
C3       0.58174    0.75973    0.78550   1.00
H1       0.59615    0.76764    0.81241   1.00
C3a      0.54287    0.74124    0.71658   1.00
H1       0.52798    0.73224    0.69025   1.00
C3b      0.54078    0.75968    0.78488   1.00
C4       0.52100    0.75032    0.75028   1.00
O3       0.47833    0.68328    0.77456   1.00
C5       0.61280    0.74926    0.65788   1.00
H2       0.58609    0.76367    0.64601   1.00
C5       0.63326    0.72694    0.62529   1.00
H2       0.63274    0.77220    0.66948   1.00
H2       0.61068    0.71210    0.60724   1.00
H2       0.65093    0.70346    0.63918   1.00
C5       0.65918    0.75320    0.59967   1.00
H2       0.64176    0.77819    0.58856   1.00
C5       0.67547    0.73023    0.56466   1.00
H2       0.68493    0.76439    0.61631   1.00
C5       0.50983    0.62357    0.75974   1.00
H2       0.48785    0.60471    0.77450   1.00
H2       0.53048    0.63378    0.78268   1.00
C5       0.53200    0.60059    0.72814   1.00
C5       0.54775    0.56219    0.74533   1.00
H2       0.30714    0.93485    0.71762   1.00
C5       0.31088    0.96351    0.77494   1.00
H2       0.35677    0.95191    0.73159   1.00
C5       0.46663    0.70375    0.97681   1.00
H2       0.49449    0.76037    0.96505   1.00
H2       0.44707    0.75241    0.93981   1.00
C5       0.69503    0.75866    0.53590   1.00
H2       0.69789    0.70813    0.57537   1.00
H2       0.65063    0.71429    0.54934   1.00
H2       0.56398    0.56857    0.77365   1.00
H2       0.52239    0.54158    0.75149   1.00
C5       0.57583    0.54304    0.71596   1.00
H2       0.29884    0.94414    0.79914   1.00
H2       0.33429    0.98357    0.78741   1.00
H2       0.28626    0.98184    0.76212   1.00
H2       0.48180    0.67633    0.96565   1.00
H2       0.47771    0.71089    1.00734   1.00
H2       0.43379    0.69860    0.97785   1.00
H2       0.71111    0.78230    0.55288   1.00
H2       0.71664    0.74204    0.51686   1.00
H2       0.67181    0.77268    0.51666   1.00
H2       0.60693    0.55302    0.72223   1.00
H2       0.57402    0.50996    0.71884   1.00
H2       0.56734    0.55196    0.68507   1.00
C5       1.13218    0.87570    0.76652   1.00
H2       1.14745    0.86240    0.79181   1.00
H2       1.11090    0.89669    0.77906   1.00
C5       1.16194    0.89717    0.74061   1.00
C5       1.17123    0.93784    0.75729   1.00
H2       1.15015    0.90050    0.71053   1.00
O3       0.98000    0.77109    0.68239   1.00
C4       1.02100    0.74968    0.75028   1.00
C3c      1.04243    0.78282    0.76132   1.00
H1       1.02725    0.80901    0.77017   1.00
C3d      1.04135    0.71567    0.73938   1.00
C3       1.08354    0.78295    0.76062   1.00
O2       1.10248    0.81469    0.77632   1.00
C3       1.08227    0.71594    0.73793   1.00
H1       1.09657    0.68962    0.72806   1.00
C2       1.10439    0.74933    0.74860   1.00
C5       0.97879    0.74089    0.65439   1.00
H2       0.94838    0.73373    0.64533   1.00
H2       0.99266    0.71374    0.66582   1.00
C5       1.00129    0.75478    0.61861   1.00
H2       1.03137    0.76298    0.62786   1.00
H2       0.98698    0.78168    0.60723   1.00
C5       1.00262    0.72290    0.58699   1.00
H2       0.97268    0.71438    0.57781   1.00
H2       1.01811    0.69652    0.59788   1.00
C5       1.02445    0.73807    0.55077   1.00
C5       1.01105    0.65909    0.75702   1.00
C5       1.11070    0.84218    0.74666   1.00
H2       0.99088    0.67441    0.77731   1.00
H2       1.03712    0.64911    0.77378   1.00
H2       1.08300    0.85286    0.73329   1.00
H2       1.12895    0.82962    0.72268   1.00
H2       1.19030    0.88108    0.73934   1.00
H2       0.94247    0.61747    0.78302   1.00
H2       0.98763    0.59320    0.79664   1.00
C2       0.89605    0.74887    0.74757   1.00
C3       0.91597    0.74004    0.78253   1.00
O2       0.89674    0.72188    0.81289   1.00
C3       0.91826    0.75973    0.71450   1.00
H1       0.90385    0.76764    0.68759   1.00
C3a      0.95713    0.74124    0.78342   1.00
H1       0.97202    0.73224    0.80975   1.00
C3b      0.95922    0.75968    0.71512   1.00
C4       0.97900    0.75032    0.74972   1.00
O3       1.02167    0.68328    0.72544   1.00
C5       0.88720    0.74926    0.84212   1.00
H2       0.91391    0.76367    0.85399   1.00
C5       0.86674    0.72694    0.87471   1.00
H2       0.86726    0.77220    0.83052   1.00
H2       0.88932    0.71210    0.89276   1.00
H2       0.84907    0.70346    0.86082   1.00
C5       0.84082    0.75320    0.90033   1.00
H2       0.85824    0.77819    0.91144   1.00
C5       0.82453    0.73023    0.93534   1.00
H2       0.81507    0.76439    0.88369   1.00
C5       0.99017    0.62357    0.74026   1.00
H2       1.01215    0.60471    0.72550   1.00
H2       0.96952    0.63378    0.71732   1.00
C5       0.96800    0.60059    0.77186   1.00
C5       0.95225    0.56219    0.75467   1.00
H2       1.19286    0.93485    0.78238   1.00
C5       1.18912    0.96351    0.72506   1.00
H2       1.14323    0.95191    0.76841   1.00
C5       1.03337    0.70375    0.52319   1.00
H2       1.00551    0.76037    0.53495   1.00
H2       1.05293    0.75241    0.56019   1.00
C5       0.80497    0.75866    0.96410   1.00
H2       0.80211    0.70813    0.92463   1.00
H2       0.84937    0.71429    0.95066   1.00
H2       0.93602    0.56857    0.72635   1.00
H2       0.97761    0.54158    0.74851   1.00
C5       0.92417    0.54304    0.78404   1.00
H2       1.20116    0.94414    0.70086   1.00
H2       1.16571    0.98357    0.71259   1.00
H2       1.21374    0.98184    0.73788   1.00
H2       1.01820    0.67633    0.53435   1.00
H2       1.02229    0.71089    0.49266   1.00
H2       1.06621    0.69860    0.52215   1.00
H2       0.78889    0.78230    0.94712   1.00
H2       0.78336    0.74204    0.98314   1.00
H2       0.82819    0.77268    0.98334   1.00
H2       0.89307    0.55302    0.77777   1.00
H2       0.92598    0.50996    0.78116   1.00
H2       0.93266    0.55196    0.81493   1.00
C5       0.73348    0.36782    0.87570   1.00
H2       0.70819    0.35255    0.86240   1.00
H2       0.72094    0.38910    0.89669   1.00
C5       0.75939    0.33806    0.89717   1.00
C5       0.74271    0.32877    0.93784   1.00
H2       0.78947    0.34985    0.90050   1.00
O3       0.81761    0.52000    0.77109   1.00
C4       0.74972    0.47900    0.74968   1.00
C3c      0.73868    0.45757    0.78282   1.00
H1       0.72983    0.47275    0.80901   1.00
C3d      0.76062    0.45865    0.71567   1.00
C3       0.73938    0.41646    0.78295   1.00
O2       0.72368    0.39752    0.81469   1.00
C3       0.76207    0.41773    0.71594   1.00
H1       0.77194    0.40343    0.68962   1.00
C2       0.75140    0.39561    0.74933   1.00
C5       0.84561    0.52121    0.74089   1.00
H2       0.85467    0.55162    0.73373   1.00
H2       0.83418    0.50734    0.71374   1.00
C5       0.88139    0.49871    0.75478   1.00
H2       0.87214    0.46863    0.76298   1.00
H2       0.89277    0.51302    0.78168   1.00
C5       0.91301    0.49738    0.72290   1.00
H2       0.92219    0.52732    0.71438   1.00
H2       0.90212    0.48189    0.69652   1.00
C5       0.94923    0.47555    0.73807   1.00
C5       0.74298    0.48895    0.65909   1.00
C5       0.75334    0.38930    0.84218   1.00
H2       0.72269    0.50912    0.67441   1.00
H2       0.72622    0.46288    0.64911   1.00
H2       0.76671    0.41700    0.85286   1.00
H2       0.77732    0.37105    0.82962   1.00
H2       0.76066    0.30970    0.88108   1.00
H2       0.71698    0.55753    0.61747   1.00
H2       0.70336    0.51237    0.59320   1.00
C2       0.75243    0.60395    0.74887   1.00
C3       0.71747    0.58403    0.74004   1.00
O2       0.68711    0.60326    0.72188   1.00
C3       0.78550    0.58174    0.75973   1.00
H1       0.81241    0.59615    0.76764   1.00
C3a      0.71658    0.54287    0.74124   1.00
H1       0.69025    0.52798    0.73224   1.00
C3b      0.78488    0.54078    0.75968   1.00
C4       0.75028    0.52100    0.75032   1.00
O3       0.77456    0.47833    0.68328   1.00
C5       0.65788    0.61280    0.74926   1.00
H2       0.64601    0.58609    0.76367   1.00
C5       0.62529    0.63326    0.72694   1.00
H2       0.66948    0.63274    0.77220   1.00
H2       0.60724    0.61068    0.71210   1.00
H2       0.63918    0.65093    0.70346   1.00
C5       0.59967    0.65918    0.75320   1.00
H2       0.58856    0.64176    0.77819   1.00
C5       0.56466    0.67547    0.73023   1.00
H2       0.61631    0.68493    0.76439   1.00
C5       0.75974    0.50983    0.62357   1.00
H2       0.77450    0.48785    0.60471   1.00
H2       0.78268    0.53048    0.63378   1.00
C5       0.72814    0.53200    0.60059   1.00
C5       0.74533    0.54775    0.56219   1.00
H2       0.71762    0.30714    0.93485   1.00
C5       0.77494    0.31088    0.96351   1.00
H2       0.73159    0.35677    0.95191   1.00
C5       0.97681    0.46663    0.70375   1.00
H2       0.96505    0.49449    0.76037   1.00
H2       0.93981    0.44707    0.75241   1.00
C5       0.53590    0.69503    0.75866   1.00
H2       0.57537    0.69789    0.70813   1.00
H2       0.54934    0.65063    0.71429   1.00
H2       0.77365    0.56398    0.56857   1.00
H2       0.75149    0.52239    0.54158   1.00
C5       0.71596    0.57583    0.54304   1.00
H2       0.79914    0.29884    0.94414   1.00
H2       0.78741    0.33429    0.98357   1.00
H2       0.76212    0.28626    0.98184   1.00
H2       0.96565    0.48180    0.67633   1.00
H2       1.00734    0.47771    0.71089   1.00
H2       0.97785    0.43379    0.69860   1.00
H2       0.55288    0.71111    0.78230   1.00
H2       0.51686    0.71664    0.74204   1.00
H2       0.51666    0.67181    0.77268   1.00
H2       0.72223    0.60693    0.55302   1.00
H2       0.71884    0.57402    0.50996   1.00
H2       0.68507    0.56734    0.55196   1.00
C5       0.87570    0.73348    0.36782   1.00
H2       0.86240    0.70819    0.35255   1.00
H2       0.89669    0.72094    0.38910   1.00
C5       0.89717    0.75939    0.33806   1.00
C5       0.93784    0.74271    0.32877   1.00
H2       0.90050    0.78947    0.34985   1.00
O3       0.77109    0.81761    0.52000   1.00
C4       0.74968    0.74972    0.47900   1.00
C3c      0.78282    0.73868    0.45757   1.00
H1       0.80901    0.72983    0.47275   1.00
C3d      0.71567    0.76062    0.45865   1.00
C3       0.78295    0.73938    0.41646   1.00
O2       0.81469    0.72368    0.39752   1.00
C3       0.71594    0.76207    0.41773   1.00
H1       0.68962    0.77194    0.40343   1.00
C2       0.74933    0.75140    0.39561   1.00
C5       0.74089    0.84561    0.52121   1.00
H2       0.73373    0.85467    0.55162   1.00
H2       0.71374    0.83418    0.50734   1.00
C5       0.75478    0.88139    0.49871   1.00
H2       0.76298    0.87214    0.46863   1.00
H2       0.78168    0.89277    0.51302   1.00
C5       0.72290    0.91301    0.49738   1.00
H2       0.71438    0.92219    0.52732   1.00
H2       0.69652    0.90212    0.48189   1.00
C5       0.73807    0.94923    0.47555   1.00
C5       0.65909    0.74298    0.48895   1.00
C5       0.84218    0.75334    0.38930   1.00
H2       0.67441    0.72269    0.50912   1.00
H2       0.64911    0.72622    0.46288   1.00
H2       0.85286    0.76671    0.41700   1.00
H2       0.82962    0.77732    0.37105   1.00
H2       0.88108    0.76066    0.30970   1.00
H2       0.61747    0.71698    0.55753   1.00
H2       0.59320    0.70336    0.51237   1.00
C2       0.74887    0.75243    0.60395   1.00
C3       0.74004    0.71747    0.58403   1.00
O2       0.72188    0.68711    0.60326   1.00
C3       0.75973    0.78550    0.58174   1.00
H1       0.76764    0.81241    0.59615   1.00
C3a      0.74124    0.71658    0.54287   1.00
H1       0.73224    0.69025    0.52798   1.00
C3b      0.75968    0.78488    0.54078   1.00
C4       0.75032    0.75028    0.52100   1.00
O3       0.68328    0.77456    0.47833   1.00
C5       0.74926    0.65788    0.61280   1.00
H2       0.76367    0.64601    0.58609   1.00
C5       0.72694    0.62529    0.63326   1.00
H2       0.77220    0.66948    0.63274   1.00
H2       0.71210    0.60724    0.61068   1.00
H2       0.70346    0.63918    0.65093   1.00
C5       0.75320    0.59967    0.65918   1.00
H2       0.77819    0.58856    0.64176   1.00
C5       0.73023    0.56466    0.67547   1.00
H2       0.76439    0.61631    0.68493   1.00
C5       0.62357    0.75974    0.50983   1.00
H2       0.60471    0.77450    0.48785   1.00
H2       0.63378    0.78268    0.53048   1.00
C5       0.60059    0.72814    0.53200   1.00
C5       0.56219    0.74533    0.54775   1.00
H2       0.93485    0.71762    0.30714   1.00
C5       0.96351    0.77494    0.31088   1.00
H2       0.95191    0.73159    0.35677   1.00
C5       0.70375    0.97681    0.46663   1.00
H2       0.76037    0.96505    0.49449   1.00
H2       0.75241    0.93981    0.44707   1.00
C5       0.75866    0.53590    0.69503   1.00
H2       0.70813    0.57537    0.69789   1.00
H2       0.71429    0.54934    0.65063   1.00
H2       0.56857    0.77365    0.56398   1.00
H2       0.54158    0.75149    0.52239   1.00
C5       0.54304    0.71596    0.57583   1.00
H2       0.94414    0.79914    0.29884   1.00
H2       0.98357    0.78741    0.33429   1.00
H2       0.98184    0.76212    0.28626   1.00
H2       0.67633    0.96565    0.48180   1.00
H2       0.71089    1.00734    0.47771   1.00
H2       0.69860    0.97785    0.43379   1.00
H2       0.78230    0.55288    0.71111   1.00
H2       0.74204    0.51686    0.71664   1.00
H2       0.77268    0.51666    0.67181   1.00
H2       0.55302    0.72223    0.60693   1.00
H2       0.50996    0.71884    0.57402   1.00
H2       0.55196    0.68507    0.56734   1.00
C5       0.37570    0.26652    1.13218   1.00
H2       0.36240    0.29181    1.14745   1.00
H2       0.39669    0.27906    1.11090   1.00
C5       0.39717    0.24061    1.16194   1.00
C5       0.43784    0.25729    1.17123   1.00
H2       0.40050    0.21053    1.15015   1.00
O3       0.27109    0.18239    0.98000   1.00
C4       0.24968    0.25028    1.02100   1.00
C3c      0.28282    0.26132    1.04243   1.00
H1       0.30901    0.27017    1.02725   1.00
C3d      0.21567    0.23938    1.04135   1.00
C3       0.28295    0.26062    1.08354   1.00
O2       0.31469    0.27632    1.10248   1.00
C3       0.21594    0.23793    1.08227   1.00
H1       0.18962    0.22806    1.09657   1.00
C2       0.24933    0.24860    1.10439   1.00
C5       0.24089    0.15439    0.97879   1.00
H2       0.23373    0.14533    0.94838   1.00
H2       0.21374    0.16582    0.99266   1.00
C5       0.25478    0.11861    1.00129   1.00
H2       0.26298    0.12786    1.03137   1.00
H2       0.28168    0.10723    0.98698   1.00
C5       0.22290    0.08699    1.00262   1.00
H2       0.21438    0.07781    0.97268   1.00
H2       0.19652    0.09788    1.01811   1.00
C5       0.23807    0.05077    1.02445   1.00
C5       0.15909    0.25702    1.01105   1.00
C5       0.34218    0.24666    1.11070   1.00
H2       0.17441    0.27731    0.99088   1.00
H2       0.14911    0.27378    1.03712   1.00
H2       0.35286    0.23329    1.08300   1.00
H2       0.32962    0.22268    1.12895   1.00
H2       0.38108    0.23934    1.19030   1.00
H2       0.11747    0.28302    0.94247   1.00
H2       0.09320    0.29664    0.98763   1.00
C2       0.24887    0.24757    0.89605   1.00
C3       0.24004    0.28253    0.91597   1.00
O2       0.22188    0.31289    0.89674   1.00
C3       0.25973    0.21450    0.91826   1.00
H1       0.26764    0.18759    0.90385   1.00
C3a      0.24124    0.28342    0.95713   1.00
H1       0.23224    0.30975    0.97202   1.00
C3b      0.25968    0.21512    0.95922   1.00
C4       0.25032    0.24972    0.97900   1.00
O3       0.18328    0.22544    1.02167   1.00
C5       0.24926    0.34212    0.88720   1.00
H2       0.26367    0.35399    0.91391   1.00
C5       0.22694    0.37471    0.86674   1.00
H2       0.27220    0.33052    0.86726   1.00
H2       0.21210    0.39276    0.88932   1.00
H2       0.20346    0.36082    0.84907   1.00
C5       0.25320    0.40033    0.84082   1.00
H2       0.27819    0.41144    0.85824   1.00
C5       0.23023    0.43534    0.82453   1.00
H2       0.26439    0.38369    0.81507   1.00
C5       0.12357    0.24026    0.99017   1.00
H2       0.10471    0.22550    1.01215   1.00
H2       0.13378    0.21732    0.96952   1.00
C5       0.10059    0.27186    0.96800   1.00
C5       0.06219    0.25467    0.95225   1.00
H2       0.43485    0.28238    1.19286   1.00
C5       0.46351    0.22506    1.18912   1.00
H2       0.45191    0.26841    1.14323   1.00
C5       0.20375    0.02319    1.03337   1.00
H2       0.26037    0.03495    1.00551   1.00
H2       0.25241    0.06019    1.05293   1.00
C5       0.25866    0.46410    0.80497   1.00
H2       0.20813    0.42463    0.80211   1.00
H2       0.21429    0.45066    0.84937   1.00
H2       0.06857    0.22635    0.93602   1.00
H2       0.04158    0.24851    0.97761   1.00
C5       0.04304    0.28404    0.92417   1.00
H2       0.44414    0.20086    1.20116   1.00
H2       0.48357    0.21259    1.16571   1.00
H2       0.48184    0.23788    1.21374   1.00
H2       0.17633    0.03435    1.01820   1.00
H2       0.21089    -0.00734   1.02229   1.00
H2       0.19860    0.02215    1.06621   1.00
H2       0.28230    0.44712    0.78889   1.00
H2       0.24204    0.48314    0.78336   1.00
H2       0.27268    0.48334    0.82819   1.00
H2       0.05302    0.27777    0.89307   1.00
H2       0.00996    0.28116    0.92598   1.00
H2       0.05196    0.31493    0.93266   1.00
C5       0.26652    0.63218    0.87570   1.00
H2       0.29181    0.64745    0.86240   1.00
H2       0.27906    0.61090    0.89669   1.00
C5       0.24061    0.66194    0.89717   1.00
C5       0.25729    0.67123    0.93784   1.00
H2       0.21053    0.65015    0.90050   1.00
O3       0.18239    0.48000    0.77109   1.00
C4       0.25028    0.52100    0.74968   1.00
C3c      0.26132    0.54243    0.78282   1.00
H1       0.27017    0.52725    0.80901   1.00
C3d      0.23938    0.54135    0.71567   1.00
C3       0.26062    0.58354    0.78295   1.00
O2       0.27632    0.60248    0.81469   1.00
C3       0.23793    0.58227    0.71594   1.00
H1       0.22806    0.59657    0.68962   1.00
C2       0.24860    0.60439    0.74933   1.00
C5       0.15439    0.47879    0.74089   1.00
H2       0.14533    0.44838    0.73373   1.00
H2       0.16582    0.49266    0.71374   1.00
C5       0.11861    0.50129    0.75478   1.00
H2       0.12786    0.53137    0.76298   1.00
H2       0.10723    0.48698    0.78168   1.00
C5       0.08699    0.50262    0.72290   1.00
H2       0.07781    0.47268    0.71438   1.00
H2       0.09788    0.51811    0.69652   1.00
C5       0.05077    0.52445    0.73807   1.00
C5       0.25702    0.51105    0.65909   1.00
C5       0.24666    0.61070    0.84218   1.00
H2       0.27731    0.49088    0.67441   1.00
H2       0.27378    0.53712    0.64911   1.00
H2       0.23329    0.58300    0.85286   1.00
H2       0.22268    0.62895    0.82962   1.00
H2       0.23934    0.69030    0.88108   1.00
H2       0.28302    0.44247    0.61747   1.00
H2       0.29664    0.48763    0.59320   1.00
C2       0.24757    0.39605    0.74887   1.00
C3       0.28253    0.41597    0.74004   1.00
O2       0.31289    0.39674    0.72188   1.00
C3       0.21450    0.41826    0.75973   1.00
H1       0.18759    0.40385    0.76764   1.00
C3a      0.28342    0.45713    0.74124   1.00
H1       0.30975    0.47202    0.73224   1.00
C3b      0.21512    0.45922    0.75968   1.00
C4       0.24972    0.47900    0.75032   1.00
O3       0.22544    0.52167    0.68328   1.00
C5       0.34212    0.38720    0.74926   1.00
H2       0.35399    0.41391    0.76367   1.00
C5       0.37471    0.36674    0.72694   1.00
H2       0.33052    0.36726    0.77220   1.00
H2       0.39276    0.38932    0.71210   1.00
H2       0.36082    0.34907    0.70346   1.00
C5       0.40033    0.34082    0.75320   1.00
H2       0.41144    0.35824    0.77819   1.00
C5       0.43534    0.32453    0.73023   1.00
H2       0.38369    0.31507    0.76439   1.00
C5       0.24026    0.49017    0.62357   1.00
H2       0.22550    0.51215    0.60471   1.00
H2       0.21732    0.46952    0.63378   1.00
C5       0.27186    0.46800    0.60059   1.00
C5       0.25467    0.45225    0.56219   1.00
H2       0.28238    0.69286    0.93485   1.00
C5       0.22506    0.68912    0.96351   1.00
H2       0.26841    0.64323    0.95191   1.00
C5       0.02319    0.53337    0.70375   1.00
H2       0.03495    0.50551    0.76037   1.00
H2       0.06019    0.55293    0.75241   1.00
C5       0.46410    0.30497    0.75866   1.00
H2       0.42463    0.30211    0.70813   1.00
H2       0.45066    0.34937    0.71429   1.00
H2       0.22635    0.43602    0.56857   1.00
H2       0.24851    0.47761    0.54158   1.00
C5       0.28404    0.42417    0.54304   1.00
H2       0.20086    0.70116    0.94414   1.00
H2       0.21259    0.66571    0.98357   1.00
H2       0.23788    0.71374    0.98184   1.00
H2       0.03435    0.51820    0.67633   1.00
H2       -0.00734   0.52229    0.71089   1.00
H2       0.02215    0.56621    0.69860   1.00
H2       0.44712    0.28889    0.78230   1.00
H2       0.48314    0.28336    0.74204   1.00
H2       0.48334    0.32819    0.77268   1.00
H2       0.27777    0.39307    0.55302   1.00
H2       0.28116    0.42598    0.50996   1.00
H2       0.31493    0.43266    0.55196   1.00
C5       -0.13218   0.37570    0.73348   1.00
H2       -0.14745   0.36240    0.70819   1.00
H2       -0.11090   0.39669    0.72094   1.00
C5       -0.16194   0.39717    0.75939   1.00
C5       -0.17123   0.43784    0.74271   1.00
H2       -0.15015   0.40050    0.78947   1.00
O3       0.02000    0.27109    0.81761   1.00
C4       -0.02100   0.24968    0.74972   1.00
C3c      -0.04243   0.28282    0.73868   1.00
H1       -0.02725   0.30901    0.72983   1.00
C3d      -0.04135   0.21567    0.76062   1.00
C3       -0.08354   0.28295    0.73938   1.00
O2       -0.10248   0.31469    0.72368   1.00
C3       -0.08227   0.21594    0.76207   1.00
H1       -0.09657   0.18962    0.77194   1.00
C2       -0.10439   0.24933    0.75140   1.00
C5       0.02121    0.24089    0.84561   1.00
H2       0.05162    0.23373    0.85467   1.00
H2       0.00734    0.21374    0.83418   1.00
C5       -0.00129   0.25478    0.88139   1.00
H2       -0.03137   0.26298    0.87214   1.00
H2       0.01302    0.28168    0.89277   1.00
C5       -0.00262   0.22290    0.91301   1.00
H2       0.02732    0.21438    0.92219   1.00
H2       -0.01811   0.19652    0.90212   1.00
C5       -0.02445   0.23807    0.94923   1.00
C5       -0.01105   0.15909    0.74298   1.00
C5       -0.11070   0.34218    0.75334   1.00
H2       0.00912    0.17441    0.72269   1.00
H2       -0.03712   0.14911    0.72622   1.00
H2       -0.08300   0.35286    0.76671   1.00
H2       -0.12895   0.32962    0.77732   1.00
H2       -0.19030   0.38108    0.76066   1.00
H2       0.05753    0.11747    0.71698   1.00
H2       0.01237    0.09320    0.70336   1.00
C2       0.10395    0.24887    0.75243   1.00
C3       0.08403    0.24004    0.71747   1.00
O2       0.10326    0.22188    0.68711   1.00
C3       0.08174    0.25973    0.78550   1.00
H1       0.09615    0.26764    0.81241   1.00
C3a      0.04287    0.24124    0.71658   1.00
H1       0.02798    0.23224    0.69025   1.00
C3b      0.04078    0.25968    0.78488   1.00
C4       0.02100    0.25032    0.75028   1.00
O3       -0.02167   0.18328    0.77456   1.00
C5       0.11280    0.24926    0.65788   1.00
H2       0.08609    0.26367    0.64601   1.00
C5       0.13326    0.22694    0.62529   1.00
H2       0.13274    0.27220    0.66948   1.00
H2       0.11068    0.21210    0.60724   1.00
H2       0.15093    0.20346    0.63918   1.00
C5       0.15918    0.25320    0.59967   1.00
H2       0.14176    0.27819    0.58856   1.00
C5       0.17547    0.23023    0.56466   1.00
H2       0.18493    0.26439    0.61631   1.00
C5       0.00983    0.12357    0.75974   1.00
H2       -0.01215   0.10471    0.77450   1.00
H2       0.03048    0.13378    0.78268   1.00
C5       0.03200    0.10059    0.72814   1.00
C5       0.04775    0.06219    0.74533   1.00
H2       -0.19286   0.43485    0.71762   1.00
C5       -0.18912   0.46351    0.77494   1.00
H2       -0.14323   0.45191    0.73159   1.00
C5       -0.03337   0.20375    0.97681   1.00
H2       -0.00551   0.26037    0.96505   1.00
H2       -0.05293   0.25241    0.93981   1.00
C5       0.19503    0.25866    0.53590   1.00
H2       0.19789    0.20813    0.57537   1.00
H2       0.15063    0.21429    0.54934   1.00
H2       0.06398    0.06857    0.77365   1.00
H2       0.02239    0.04158    0.75149   1.00
C5       0.07583    0.04304    0.71596   1.00
H2       -0.20116   0.44414    0.79914   1.00
H2       -0.16571   0.48357    0.78741   1.00
H2       -0.21374   0.48184    0.76212   1.00
H2       -0.01820   0.17633    0.96565   1.00
H2       -0.02229   0.21089    1.00734   1.00
H2       -0.06621   0.19860    0.97785   1.00
H2       0.21111    0.28230    0.55288   1.00
H2       0.21664    0.24204    0.51686   1.00
H2       0.17181    0.27268    0.51666   1.00
H2       0.10693    0.05302    0.72223   1.00
H2       0.07402    0.00996    0.71884   1.00
H2       0.06734    0.05196    0.68507   1.00
C5       0.63218    0.37570    0.76652   1.00
H2       0.64745    0.36240    0.79181   1.00
H2       0.61090    0.39669    0.77906   1.00
C5       0.66194    0.39717    0.74061   1.00
C5       0.67123    0.43784    0.75729   1.00
H2       0.65015    0.40050    0.71053   1.00
O3       0.48000    0.27109    0.68239   1.00
C4       0.52100    0.24968    0.75028   1.00
C3c      0.54243    0.28282    0.76132   1.00
H1       0.52725    0.30901    0.77017   1.00
C3d      0.54135    0.21567    0.73938   1.00
C3       0.58354    0.28295    0.76062   1.00
O2       0.60248    0.31469    0.77632   1.00
C3       0.58227    0.21594    0.73793   1.00
H1       0.59657    0.18962    0.72806   1.00
C2       0.60439    0.24933    0.74860   1.00
C5       0.47879    0.24089    0.65439   1.00
H2       0.44838    0.23373    0.64533   1.00
H2       0.49266    0.21374    0.66582   1.00
C5       0.50129    0.25478    0.61861   1.00
H2       0.53137    0.26298    0.62786   1.00
H2       0.48698    0.28168    0.60723   1.00
C5       0.50262    0.22290    0.58699   1.00
H2       0.47268    0.21438    0.57781   1.00
H2       0.51811    0.19652    0.59788   1.00
C5       0.52445    0.23807    0.55077   1.00
C5       0.51105    0.15909    0.75702   1.00
C5       0.61070    0.34218    0.74666   1.00
H2       0.49088    0.17441    0.77731   1.00
H2       0.53712    0.14911    0.77378   1.00
H2       0.58300    0.35286    0.73329   1.00
H2       0.62895    0.32962    0.72268   1.00
H2       0.69030    0.38108    0.73934   1.00
H2       0.44247    0.11747    0.78302   1.00
H2       0.48763    0.09320    0.79664   1.00
C2       0.39605    0.24887    0.74757   1.00
C3       0.41597    0.24004    0.78253   1.00
O2       0.39674    0.22188    0.81289   1.00
C3       0.41826    0.25973    0.71450   1.00
H1       0.40385    0.26764    0.68759   1.00
C3a      0.45713    0.24124    0.78342   1.00
H1       0.47202    0.23224    0.80975   1.00
C3b      0.45922    0.25968    0.71512   1.00
C4       0.47900    0.25032    0.74972   1.00
O3       0.52167    0.18328    0.72544   1.00
C5       0.38720    0.24926    0.84212   1.00
H2       0.41391    0.26367    0.85399   1.00
C5       0.36674    0.22694    0.87471   1.00
H2       0.36726    0.27220    0.83052   1.00
H2       0.38932    0.21210    0.89276   1.00
H2       0.34907    0.20346    0.86082   1.00
C5       0.34082    0.25320    0.90033   1.00
H2       0.35824    0.27819    0.91144   1.00
C5       0.32453    0.23023    0.93534   1.00
H2       0.31507    0.26439    0.88369   1.00
C5       0.49017    0.12357    0.74026   1.00
H2       0.51215    0.10471    0.72550   1.00
H2       0.46952    0.13378    0.71732   1.00
C5       0.46800    0.10059    0.77186   1.00
C5       0.45225    0.06219    0.75467   1.00
H2       0.69286    0.43485    0.78238   1.00
C5       0.68912    0.46351    0.72506   1.00
H2       0.64323    0.45191    0.76841   1.00
C5       0.53337    0.20375    0.52319   1.00
H2       0.50551    0.26037    0.53495   1.00
H2       0.55293    0.25241    0.56019   1.00
C5       0.30497    0.25866    0.96410   1.00
H2       0.30211    0.20813    0.92463   1.00
H2       0.34937    0.21429    0.95066   1.00
H2       0.43602    0.06857    0.72635   1.00
H2       0.47761    0.04158    0.74851   1.00
C5       0.42417    0.04304    0.78404   1.00
H2       0.70116    0.44414    0.70086   1.00
H2       0.66571    0.48357    0.71259   1.00
H2       0.71374    0.48184    0.73788   1.00
H2       0.51820    0.17633    0.53435   1.00
H2       0.52229    0.21089    0.49266   1.00
H2       0.56621    0.19860    0.52215   1.00
H2       0.28889    0.28230    0.94712   1.00
H2       0.28336    0.24204    0.98314   1.00
H2       0.32819    0.27268    0.98334   1.00
H2       0.39307    0.05302    0.77777   1.00
H2       0.42598    0.00996    0.78116   1.00
H2       0.43266    0.05196    0.81493   1.00
C5       0.23348    -0.13218   0.87570   1.00
H2       0.20819    -0.14745   0.86240   1.00
H2       0.22094    -0.11090   0.89669   1.00
C5       0.25939    -0.16194   0.89717   1.00
C5       0.24271    -0.17123   0.93784   1.00
H2       0.28947    -0.15015   0.90050   1.00
O3       0.31761    0.02000    0.77109   1.00
C4       0.24972    -0.02100   0.74968   1.00
C3c      0.23868    -0.04243   0.78282   1.00
H1       0.22983    -0.02725   0.80901   1.00
C3d      0.26062    -0.04135   0.71567   1.00
C3       0.23938    -0.08354   0.78295   1.00
O2       0.22368    -0.10248   0.81469   1.00
C3       0.26207    -0.08227   0.71594   1.00
H1       0.27194    -0.09657   0.68962   1.00
C2       0.25140    -0.10439   0.74933   1.00
C5       0.34561    0.02121    0.74089   1.00
H2       0.35467    0.05162    0.73373   1.00
H2       0.33418    0.00734    0.71374   1.00
C5       0.38139    -0.00129   0.75478   1.00
H2       0.37214    -0.03137   0.76298   1.00
H2       0.39277    0.01302    0.78168   1.00
C5       0.41301    -0.00262   0.72290   1.00
H2       0.42219    0.02732    0.71438   1.00
H2       0.40212    -0.01811   0.69652   1.00
C5       0.44923    -0.02445   0.73807   1.00
C5       0.24298    -0.01105   0.65909   1.00
C5       0.25334    -0.11070   0.84218   1.00
H2       0.22269    0.00912    0.67441   1.00
H2       0.22622    -0.03712   0.64911   1.00
H2       0.26671    -0.08300   0.85286   1.00
H2       0.27732    -0.12895   0.82962   1.00
H2       0.26066    -0.19030   0.88108   1.00
H2       0.21698    0.05753    0.61747   1.00
H2       0.20336    0.01237    0.59320   1.00
C2       0.25243    0.10395    0.74887   1.00
C3       0.21747    0.08403    0.74004   1.00
O2       0.18711    0.10326    0.72188   1.00
C3       0.28550    0.08174    0.75973   1.00
H1       0.31241    0.09615    0.76764   1.00
C3a      0.21658    0.04287    0.74124   1.00
H1       0.19025    0.02798    0.73224   1.00
C3b      0.28488    0.04078    0.75968   1.00
C4       0.25028    0.02100    0.75032   1.00
O3       0.27456    -0.02167   0.68328   1.00
C5       0.15788    0.11280    0.74926   1.00
H2       0.14601    0.08609    0.76367   1.00
C5       0.12529    0.13326    0.72694   1.00
H2       0.16948    0.13274    0.77220   1.00
H2       0.10724    0.11068    0.71210   1.00
H2       0.13918    0.15093    0.70346   1.00
C5       0.09967    0.15918    0.75320   1.00
H2       0.08856    0.14176    0.77819   1.00
C5       0.06466    0.17547    0.73023   1.00
H2       0.11631    0.18493    0.76439   1.00
C5       0.25974    0.00983    0.62357   1.00
H2       0.27450    -0.01215   0.60471   1.00
H2       0.28268    0.03048    0.63378   1.00
C5       0.22814    0.03200    0.60059   1.00
C5       0.24533    0.04775    0.56219   1.00
H2       0.21762    -0.19286   0.93485   1.00
C5       0.27494    -0.18912   0.96351   1.00
H2       0.23159    -0.14323   0.95191   1.00
C5       0.47681    -0.03337   0.70375   1.00
H2       0.46505    -0.00551   0.76037   1.00
H2       0.43981    -0.05293   0.75241   1.00
C5       0.03590    0.19503    0.75866   1.00
H2       0.07537    0.19789    0.70813   1.00
H2       0.04934    0.15063    0.71429   1.00
H2       0.27365    0.06398    0.56857   1.00
H2       0.25149    0.02239    0.54158   1.00
C5       0.21596    0.07583    0.54304   1.00
H2       0.29914    -0.20116   0.94414   1.00
H2       0.28741    -0.16571   0.98357   1.00
H2       0.26212    -0.21374   0.98184   1.00
H2       0.46565    -0.01820   0.67633   1.00
H2       0.50734    -0.02229   0.71089   1.00
H2       0.47785    -0.06621   0.69860   1.00
H2       0.05288    0.21111    0.78230   1.00
H2       0.01686    0.21664    0.74204   1.00
H2       0.01666    0.17181    0.77268   1.00
H2       0.22223    0.10693    0.55302   1.00
H2       0.21884    0.07402    0.50996   1.00
H2       0.18507    0.06734    0.55196   1.00
C5       0.37570    0.23348    0.36782   1.00
H2       0.36240    0.20819    0.35255   1.00
H2       0.39669    0.22094    0.38910   1.00
C5       0.39717    0.25939    0.33806   1.00
C5       0.43784    0.24271    0.32877   1.00
H2       0.40050    0.28947    0.34985   1.00
O3       0.27109    0.31761    0.52000   1.00
C4       0.24968    0.24972    0.47900   1.00
C3c      0.28282    0.23868    0.45757   1.00
H1       0.30901    0.22983    0.47275   1.00
C3d      0.21567    0.26062    0.45865   1.00
C3       0.28295    0.23938    0.41646   1.00
O2       0.31469    0.22368    0.39752   1.00
C3       0.21594    0.26207    0.41773   1.00
H1       0.18962    0.27194    0.40343   1.00
C2       0.24933    0.25140    0.39561   1.00
C5       0.24089    0.34561    0.52121   1.00
H2       0.23373    0.35467    0.55162   1.00
H2       0.21374    0.33418    0.50734   1.00
C5       0.25478    0.38139    0.49871   1.00
H2       0.26298    0.37214    0.46863   1.00
H2       0.28168    0.39277    0.51302   1.00
C5       0.22290    0.41301    0.49738   1.00
H2       0.21438    0.42219    0.52732   1.00
H2       0.19652    0.40212    0.48189   1.00
C5       0.23807    0.44923    0.47555   1.00
C5       0.15909    0.24298    0.48895   1.00
C5       0.34218    0.25334    0.38930   1.00
H2       0.17441    0.22269    0.50912   1.00
H2       0.14911    0.22622    0.46288   1.00
H2       0.35286    0.26671    0.41700   1.00
H2       0.32962    0.27732    0.37105   1.00
H2       0.38108    0.26066    0.30970   1.00
H2       0.11747    0.21698    0.55753   1.00
H2       0.09320    0.20336    0.51237   1.00
C2       0.24887    0.25243    0.60395   1.00
C3       0.24004    0.21747    0.58403   1.00
O2       0.22188    0.18711    0.60326   1.00
C3       0.25973    0.28550    0.58174   1.00
H1       0.26764    0.31241    0.59615   1.00
C3a      0.24124    0.21658    0.54287   1.00
H1       0.23224    0.19025    0.52798   1.00
C3b      0.25968    0.28488    0.54078   1.00
C4       0.25032    0.25028    0.52100   1.00
O3       0.18328    0.27456    0.47833   1.00
C5       0.24926    0.15788    0.61280   1.00
H2       0.26367    0.14601    0.58609   1.00
C5       0.22694    0.12529    0.63326   1.00
H2       0.27220    0.16948    0.63274   1.00
H2       0.21210    0.10724    0.61068   1.00
H2       0.20346    0.13918    0.65093   1.00
C5       0.25320    0.09967    0.65918   1.00
H2       0.27819    0.08856    0.64176   1.00
C5       0.23023    0.06466    0.67547   1.00
H2       0.26439    0.11631    0.68493   1.00
C5       0.12357    0.25974    0.50983   1.00
H2       0.10471    0.27450    0.48785   1.00
H2       0.13378    0.28268    0.53048   1.00
C5       0.10059    0.22814    0.53200   1.00
C5       0.06219    0.24533    0.54775   1.00
H2       0.43485    0.21762    0.30714   1.00
C5       0.46351    0.27494    0.31088   1.00
H2       0.45191    0.23159    0.35677   1.00
C5       0.20375    0.47681    0.46663   1.00
H2       0.26037    0.46505    0.49449   1.00
H2       0.25241    0.43981    0.44707   1.00
C5       0.25866    0.03590    0.69503   1.00
H2       0.20813    0.07537    0.69789   1.00
H2       0.21429    0.04934    0.65063   1.00
H2       0.06857    0.27365    0.56398   1.00
H2       0.04158    0.25149    0.52239   1.00
C5       0.04304    0.21596    0.57583   1.00
H2       0.44414    0.29914    0.29884   1.00
H2       0.48357    0.28741    0.33429   1.00
H2       0.48184    0.26212    0.28626   1.00
H2       0.17633    0.46565    0.48180   1.00
H2       0.21089    0.50734    0.47771   1.00
H2       0.19860    0.47785    0.43379   1.00
H2       0.28230    0.05288    0.71111   1.00
H2       0.24204    0.01686    0.71664   1.00
H2       0.27268    0.01666    0.67181   1.00
H2       0.05302    0.22223    0.60693   1.00
H2       0.00996    0.21884    0.57402   1.00
H2       0.05196    0.18507    0.56734   1.00
C5       0.37570    0.76652    0.63218   1.00
H2       0.36240    0.79181    0.64745   1.00
H2       0.39669    0.77906    0.61090   1.00
C5       0.39717    0.74061    0.66194   1.00
C5       0.43784    0.75729    0.67123   1.00
H2       0.40050    0.71053    0.65015   1.00
O3       0.27109    0.68239    0.48000   1.00
C4       0.24968    0.75028    0.52100   1.00
C3c      0.28282    0.76132    0.54243   1.00
H1       0.30901    0.77017    0.52725   1.00
C3d      0.21567    0.73938    0.54135   1.00
C3       0.28295    0.76062    0.58354   1.00
O2       0.31469    0.77632    0.60248   1.00
C3       0.21594    0.73793    0.58227   1.00
H1       0.18962    0.72806    0.59657   1.00
C2       0.24933    0.74860    0.60439   1.00
C5       0.24089    0.65439    0.47879   1.00
H2       0.23373    0.64533    0.44838   1.00
H2       0.21374    0.66582    0.49266   1.00
C5       0.25478    0.61861    0.50129   1.00
H2       0.26298    0.62786    0.53137   1.00
H2       0.28168    0.60723    0.48698   1.00
C5       0.22290    0.58699    0.50262   1.00
H2       0.21438    0.57781    0.47268   1.00
H2       0.19652    0.59788    0.51811   1.00
C5       0.23807    0.55077    0.52445   1.00
C5       0.15909    0.75702    0.51105   1.00
C5       0.34218    0.74666    0.61070   1.00
H2       0.17441    0.77731    0.49088   1.00
H2       0.14911    0.77378    0.53712   1.00
H2       0.35286    0.73329    0.58300   1.00
H2       0.32962    0.72268    0.62895   1.00
H2       0.38108    0.73934    0.69030   1.00
H2       0.11747    0.78302    0.44247   1.00
H2       0.09320    0.79664    0.48763   1.00
C2       0.24887    0.74757    0.39605   1.00
C3       0.24004    0.78253    0.41597   1.00
O2       0.22188    0.81289    0.39674   1.00
C3       0.25973    0.71450    0.41826   1.00
H1       0.26764    0.68759    0.40385   1.00
C3a      0.24124    0.78342    0.45713   1.00
H1       0.23224    0.80975    0.47202   1.00
C3b      0.25968    0.71512    0.45922   1.00
C4       0.25032    0.74972    0.47900   1.00
O3       0.18328    0.72544    0.52167   1.00
C5       0.24926    0.84212    0.38720   1.00
H2       0.26367    0.85399    0.41391   1.00
C5       0.22694    0.87471    0.36674   1.00
H2       0.27220    0.83052    0.36726   1.00
H2       0.21210    0.89276    0.38932   1.00
H2       0.20346    0.86082    0.34907   1.00
C5       0.25320    0.90033    0.34082   1.00
H2       0.27819    0.91144    0.35824   1.00
C5       0.23023    0.93534    0.32453   1.00
H2       0.26439    0.88369    0.31507   1.00
C5       0.12357    0.74026    0.49017   1.00
H2       0.10471    0.72550    0.51215   1.00
H2       0.13378    0.71732    0.46952   1.00
C5       0.10059    0.77186    0.46800   1.00
C5       0.06219    0.75467    0.45225   1.00
H2       0.43485    0.78238    0.69286   1.00
C5       0.46351    0.72506    0.68912   1.00
H2       0.45191    0.76841    0.64323   1.00
C5       0.20375    0.52319    0.53337   1.00
H2       0.26037    0.53495    0.50551   1.00
H2       0.25241    0.56019    0.55293   1.00
C5       0.25866    0.96410    0.30497   1.00
H2       0.20813    0.92463    0.30211   1.00
H2       0.21429    0.95066    0.34937   1.00
H2       0.06857    0.72635    0.43602   1.00
H2       0.04158    0.74851    0.47761   1.00
C5       0.04304    0.78404    0.42417   1.00
H2       0.44414    0.70086    0.70116   1.00
H2       0.48357    0.71259    0.66571   1.00
H2       0.48184    0.73788    0.71374   1.00
H2       0.17633    0.53435    0.51820   1.00
H2       0.21089    0.49266    0.52229   1.00
H2       0.19860    0.52215    0.56621   1.00
H2       0.28230    0.94712    0.28889   1.00
H2       0.24204    0.98314    0.28336   1.00
H2       0.27268    0.98334    0.32819   1.00
H2       0.05302    0.77777    0.39307   1.00
H2       0.00996    0.78116    0.42598   1.00
H2       0.05196    0.81493    0.43266   1.00
C5       0.26652    1.13218    0.37570   1.00
H2       0.29181    1.14745    0.36240   1.00
H2       0.27906    1.11090    0.39669   1.00
C5       0.24061    1.16194    0.39717   1.00
C5       0.25729    1.17123    0.43784   1.00
H2       0.21053    1.15015    0.40050   1.00
O3       0.18239    0.98000    0.27109   1.00
C4       0.25028    1.02100    0.24968   1.00
C3c      0.26132    1.04243    0.28282   1.00
H1       0.27017    1.02725    0.30901   1.00
C3d      0.23938    1.04135    0.21567   1.00
C3       0.26062    1.08354    0.28295   1.00
O2       0.27632    1.10248    0.31469   1.00
C3       0.23793    1.08227    0.21594   1.00
H1       0.22806    1.09657    0.18962   1.00
C2       0.24860    1.10439    0.24933   1.00
C5       0.15439    0.97879    0.24089   1.00
H2       0.14533    0.94838    0.23373   1.00
H2       0.16582    0.99266    0.21374   1.00
C5       0.11861    1.00129    0.25478   1.00
H2       0.12786    1.03137    0.26298   1.00
H2       0.10723    0.98698    0.28168   1.00
C5       0.08699    1.00262    0.22290   1.00
H2       0.07781    0.97268    0.21438   1.00
H2       0.09788    1.01811    0.19652   1.00
C5       0.05077    1.02445    0.23807   1.00
C5       0.25702    1.01105    0.15909   1.00
C5       0.24666    1.11070    0.34218   1.00
H2       0.27731    0.99088    0.17441   1.00
H2       0.27378    1.03712    0.14911   1.00
H2       0.23329    1.08300    0.35286   1.00
H2       0.22268    1.12895    0.32962   1.00
H2       0.23934    1.19030    0.38108   1.00
H2       0.28302    0.94247    0.11747   1.00
H2       0.29664    0.98763    0.09320   1.00
C2       0.24757    0.89605    0.24887   1.00
C3       0.28253    0.91597    0.24004   1.00
O2       0.31289    0.89674    0.22188   1.00
C3       0.21450    0.91826    0.25973   1.00
H1       0.18759    0.90385    0.26764   1.00
C3a      0.28342    0.95713    0.24124   1.00
H1       0.30975    0.97202    0.23224   1.00
C3b      0.21512    0.95922    0.25968   1.00
C4       0.24972    0.97900    0.25032   1.00
O3       0.22544    1.02167    0.18328   1.00
C5       0.34212    0.88720    0.24926   1.00
H2       0.35399    0.91391    0.26367   1.00
C5       0.37471    0.86674    0.22694   1.00
H2       0.33052    0.86726    0.27220   1.00
H2       0.39276    0.88932    0.21210   1.00
H2       0.36082    0.84907    0.20346   1.00
C5       0.40033    0.84082    0.25320   1.00
H2       0.41144    0.85824    0.27819   1.00
C5       0.43534    0.82453    0.23023   1.00
H2       0.38369    0.81507    0.26439   1.00
C5       0.24026    0.99017    0.12357   1.00
H2       0.22550    1.01215    0.10471   1.00
H2       0.21732    0.96952    0.13378   1.00
C5       0.27186    0.96800    0.10059   1.00
C5       0.25467    0.95225    0.06219   1.00
H2       0.28238    1.19286    0.43485   1.00
C5       0.22506    1.18912    0.46351   1.00
H2       0.26841    1.14323    0.45191   1.00
C5       0.02319    1.03337    0.20375   1.00
H2       0.03495    1.00551    0.26037   1.00
H2       0.06019    1.05293    0.25241   1.00
C5       0.46410    0.80497    0.25866   1.00
H2       0.42463    0.80211    0.20813   1.00
H2       0.45066    0.84937    0.21429   1.00
H2       0.22635    0.93602    0.06857   1.00
H2       0.24851    0.97761    0.04158   1.00
C5       0.28404    0.92417    0.04304   1.00
H2       0.20086    1.20116    0.44414   1.00
H2       0.21259    1.16571    0.48357   1.00
H2       0.23788    1.21374    0.48184   1.00
H2       0.03435    1.01820    0.17633   1.00
H2       -0.00734   1.02229    0.21089   1.00
H2       0.02215    1.06621    0.19860   1.00
H2       0.44712    0.78889    0.28230   1.00
H2       0.48314    0.78336    0.24204   1.00
H2       0.48334    0.82819    0.27268   1.00
H2       0.27777    0.89307    0.05302   1.00
H2       0.28116    0.92598    0.00996   1.00
H2       0.31493    0.93266    0.05196   1.00
C5       -0.13218   0.87570    0.23348   1.00
H2       -0.14745   0.86240    0.20819   1.00
H2       -0.11090   0.89669    0.22094   1.00
C5       -0.16194   0.89717    0.25939   1.00
C5       -0.17123   0.93784    0.24271   1.00
H2       -0.15015   0.90050    0.28947   1.00
O3       0.02000    0.77109    0.31761   1.00
C4       -0.02100   0.74968    0.24972   1.00
C3c      -0.04243   0.78282    0.23868   1.00
H1       -0.02725   0.80901    0.22983   1.00
C3d      -0.04135   0.71567    0.26062   1.00
C3       -0.08354   0.78295    0.23938   1.00
O2       -0.10248   0.81469    0.22368   1.00
C3       -0.08227   0.71594    0.26207   1.00
H1       -0.09657   0.68962    0.27194   1.00
C2       -0.10439   0.74933    0.25140   1.00
C5       0.02121    0.74089    0.34561   1.00
H2       0.05162    0.73373    0.35467   1.00
H2       0.00734    0.71374    0.33418   1.00
C5       -0.00129   0.75478    0.38139   1.00
H2       -0.03137   0.76298    0.37214   1.00
H2       0.01302    0.78168    0.39277   1.00
C5       -0.00262   0.72290    0.41301   1.00
H2       0.02732    0.71438    0.42219   1.00
H2       -0.01811   0.69652    0.40212   1.00
C5       -0.02445   0.73807    0.44923   1.00
C5       -0.01105   0.65909    0.24298   1.00
C5       -0.11070   0.84218    0.25334   1.00
H2       0.00912    0.67441    0.22269   1.00
H2       -0.03712   0.64911    0.22622   1.00
H2       -0.08300   0.85286    0.26671   1.00
H2       -0.12895   0.82962    0.27732   1.00
H2       -0.19030   0.88108    0.26066   1.00
H2       0.05753    0.61747    0.21698   1.00
H2       0.01237    0.59320    0.20336   1.00
C2       0.10395    0.74887    0.25243   1.00
C3       0.08403    0.74004    0.21747   1.00
O2       0.10326    0.72188    0.18711   1.00
C3       0.08174    0.75973    0.28550   1.00
H1       0.09615    0.76764    0.31241   1.00
C3a      0.04287    0.74124    0.21658   1.00
H1       0.02798    0.73224    0.19025   1.00
C3b      0.04078    0.75968    0.28488   1.00
C4       0.02100    0.75032    0.25028   1.00
O3       -0.02167   0.68328    0.27456   1.00
C5       0.11280    0.74926    0.15788   1.00
H2       0.08609    0.76367    0.14601   1.00
C5       0.13326    0.72694    0.12529   1.00
H2       0.13274    0.77220    0.16948   1.00
H2       0.11068    0.71210    0.10724   1.00
H2       0.15093    0.70346    0.13918   1.00
C5       0.15918    0.75320    0.09967   1.00
H2       0.14176    0.77819    0.08856   1.00
C5       0.17547    0.73023    0.06466   1.00
H2       0.18493    0.76439    0.11631   1.00
C5       0.00983    0.62357    0.25974   1.00
H2       -0.01215   0.60471    0.27450   1.00
H2       0.03048    0.63378    0.28268   1.00
C5       0.03200    0.60059    0.22814   1.00
C5       0.04775    0.56219    0.24533   1.00
H2       -0.19286   0.93485    0.21762   1.00
C5       -0.18912   0.96351    0.27494   1.00
H2       -0.14323   0.95191    0.23159   1.00
C5       -0.03337   0.70375    0.47681   1.00
H2       -0.00551   0.76037    0.46505   1.00
H2       -0.05293   0.75241    0.43981   1.00
C5       0.19503    0.75866    0.03590   1.00
H2       0.19789    0.70813    0.07537   1.00
H2       0.15063    0.71429    0.04934   1.00
H2       0.06398    0.56857    0.27365   1.00
H2       0.02239    0.54158    0.25149   1.00
C5       0.07583    0.54304    0.21596   1.00
H2       -0.20116   0.94414    0.29914   1.00
H2       -0.16571   0.98357    0.28741   1.00
H2       -0.21374   0.98184    0.26212   1.00
H2       -0.01820   0.67633    0.46565   1.00
H2       -0.02229   0.71089    0.50734   1.00
H2       -0.06621   0.69860    0.47785   1.00
H2       0.21111    0.78230    0.05288   1.00
H2       0.21664    0.74204    0.01686   1.00
H2       0.17181    0.77268    0.01666   1.00
H2       0.10693    0.55302    0.22223   1.00
H2       0.07402    0.50996    0.21884   1.00
H2       0.06734    0.55196    0.18507   1.00
C5       0.63218    0.87570    0.26652   1.00
H2       0.64745    0.86240    0.29181   1.00
H2       0.61090    0.89669    0.27906   1.00
C5       0.66194    0.89717    0.24061   1.00
C5       0.67123    0.93784    0.25729   1.00
H2       0.65015    0.90050    0.21053   1.00
O3       0.48000    0.77109    0.18239   1.00
C4       0.52100    0.74968    0.25028   1.00
C3c      0.54243    0.78282    0.26132   1.00
H1       0.52725    0.80901    0.27017   1.00
C3d      0.54135    0.71567    0.23938   1.00
C3       0.58354    0.78295    0.26062   1.00
O2       0.60248    0.81469    0.27632   1.00
C3       0.58227    0.71594    0.23793   1.00
H1       0.59657    0.68962    0.22806   1.00
C2       0.60439    0.74933    0.24860   1.00
C5       0.47879    0.74089    0.15439   1.00
H2       0.44838    0.73373    0.14533   1.00
H2       0.49266    0.71374    0.16582   1.00
C5       0.50129    0.75478    0.11861   1.00
H2       0.53137    0.76298    0.12786   1.00
H2       0.48698    0.78168    0.10723   1.00
C5       0.50262    0.72290    0.08699   1.00
H2       0.47268    0.71438    0.07781   1.00
H2       0.51811    0.69652    0.09788   1.00
C5       0.52445    0.73807    0.05077   1.00
C5       0.51105    0.65909    0.25702   1.00
C5       0.61070    0.84218    0.24666   1.00
H2       0.49088    0.67441    0.27731   1.00
H2       0.53712    0.64911    0.27378   1.00
H2       0.58300    0.85286    0.23329   1.00
H2       0.62895    0.82962    0.22268   1.00
H2       0.69030    0.88108    0.23934   1.00
H2       0.44247    0.61747    0.28302   1.00
H2       0.48763    0.59320    0.29664   1.00
C2       0.39605    0.74887    0.24757   1.00
C3       0.41597    0.74004    0.28253   1.00
O2       0.39674    0.72188    0.31289   1.00
C3       0.41826    0.75973    0.21450   1.00
H1       0.40385    0.76764    0.18759   1.00
C3a      0.45713    0.74124    0.28342   1.00
H1       0.47202    0.73224    0.30975   1.00
C3b      0.45922    0.75968    0.21512   1.00
C4       0.47900    0.75032    0.24972   1.00
O3       0.52167    0.68328    0.22544   1.00
C5       0.38720    0.74926    0.34212   1.00
H2       0.41391    0.76367    0.35399   1.00
C5       0.36674    0.72694    0.37471   1.00
H2       0.36726    0.77220    0.33052   1.00
H2       0.38932    0.71210    0.39276   1.00
H2       0.34907    0.70346    0.36082   1.00
C5       0.34082    0.75320    0.40033   1.00
H2       0.35824    0.77819    0.41144   1.00
C5       0.32453    0.73023    0.43534   1.00
H2       0.31507    0.76439    0.38369   1.00
C5       0.49017    0.62357    0.24026   1.00
H2       0.51215    0.60471    0.22550   1.00
H2       0.46952    0.63378    0.21732   1.00
C5       0.46800    0.60059    0.27186   1.00
C5       0.45225    0.56219    0.25467   1.00
H2       0.69286    0.93485    0.28238   1.00
C5       0.68912    0.96351    0.22506   1.00
H2       0.64323    0.95191    0.26841   1.00
C5       0.53337    0.70375    0.02319   1.00
H2       0.50551    0.76037    0.03495   1.00
H2       0.55293    0.75241    0.06019   1.00
C5       0.30497    0.75866    0.46410   1.00
H2       0.30211    0.70813    0.42463   1.00
H2       0.34937    0.71429    0.45066   1.00
H2       0.43602    0.56857    0.22635   1.00
H2       0.47761    0.54158    0.24851   1.00
C5       0.42417    0.54304    0.28404   1.00
H2       0.70116    0.94414    0.20086   1.00
H2       0.66571    0.98357    0.21259   1.00
H2       0.71374    0.98184    0.23788   1.00
H2       0.51820    0.67633    0.03435   1.00
H2       0.52229    0.71089    -0.00734   1.00
H2       0.56621    0.69860    0.02215   1.00
H2       0.28889    0.78230    0.44712   1.00
H2       0.28336    0.74204    0.48314   1.00
H2       0.32819    0.77268    0.48334   1.00
H2       0.39307    0.55302    0.27777   1.00
H2       0.42598    0.50996    0.28116   1.00
H2       0.43266    0.55196    0.31493   1.00
C5       0.23348    0.36782    0.37570   1.00
H2       0.20819    0.35255    0.36240   1.00
H2       0.22094    0.38910    0.39669   1.00
C5       0.25939    0.33806    0.39717   1.00
C5       0.24271    0.32877    0.43784   1.00
H2       0.28947    0.34985    0.40050   1.00
O3       0.31761    0.52000    0.27109   1.00
C4       0.24972    0.47900    0.24968   1.00
C3c      0.23868    0.45757    0.28282   1.00
H1       0.22983    0.47275    0.30901   1.00
C3d      0.26062    0.45865    0.21567   1.00
C3       0.23938    0.41646    0.28295   1.00
O2       0.22368    0.39752    0.31469   1.00
C3       0.26207    0.41773    0.21594   1.00
H1       0.27194    0.40343    0.18962   1.00
C2       0.25140    0.39561    0.24933   1.00
C5       0.34561    0.52121    0.24089   1.00
H2       0.35467    0.55162    0.23373   1.00
H2       0.33418    0.50734    0.21374   1.00
C5       0.38139    0.49871    0.25478   1.00
H2       0.37214    0.46863    0.26298   1.00
H2       0.39277    0.51302    0.28168   1.00
C5       0.41301    0.49738    0.22290   1.00
H2       0.42219    0.52732    0.21438   1.00
H2       0.40212    0.48189    0.19652   1.00
C5       0.44923    0.47555    0.23807   1.00
C5       0.24298    0.48895    0.15909   1.00
C5       0.25334    0.38930    0.34218   1.00
H2       0.22269    0.50912    0.17441   1.00
H2       0.22622    0.46288    0.14911   1.00
H2       0.26671    0.41700    0.35286   1.00
H2       0.27732    0.37105    0.32962   1.00
H2       0.26066    0.30970    0.38108   1.00
H2       0.21698    0.55753    0.11747   1.00
H2       0.20336    0.51237    0.09320   1.00
C2       0.25243    0.60395    0.24887   1.00
C3       0.21747    0.58403    0.24004   1.00
O2       0.18711    0.60326    0.22188   1.00
C3       0.28550    0.58174    0.25973   1.00
H1       0.31241    0.59615    0.26764   1.00
C3a      0.21658    0.54287    0.24124   1.00
H1       0.19025    0.52798    0.23224   1.00
C3b      0.28488    0.54078    0.25968   1.00
C4       0.25028    0.52100    0.25032   1.00
O3       0.27456    0.47833    0.18328   1.00
C5       0.15788    0.61280    0.24926   1.00
H2       0.14601    0.58609    0.26367   1.00
C5       0.12529    0.63326    0.22694   1.00
H2       0.16948    0.63274    0.27220   1.00
H2       0.10724    0.61068    0.21210   1.00
H2       0.13918    0.65093    0.20346   1.00
C5       0.09967    0.65918    0.25320   1.00
H2       0.08856    0.64176    0.27819   1.00
C5       0.06466    0.67547    0.23023   1.00
H2       0.11631    0.68493    0.26439   1.00
C5       0.25974    0.50983    0.12357   1.00
H2       0.27450    0.48785    0.10471   1.00
H2       0.28268    0.53048    0.13378   1.00
C5       0.22814    0.53200    0.10059   1.00
C5       0.24533    0.54775    0.06219   1.00
H2       0.21762    0.30714    0.43485   1.00
C5       0.27494    0.31088    0.46351   1.00
H2       0.23159    0.35677    0.45191   1.00
C5       0.47681    0.46663    0.20375   1.00
H2       0.46505    0.49449    0.26037   1.00
H2       0.43981    0.44707    0.25241   1.00
C5       0.03590    0.69503    0.25866   1.00
H2       0.07537    0.69789    0.20813   1.00
H2       0.04934    0.65063    0.21429   1.00
H2       0.27365    0.56398    0.06857   1.00
H2       0.25149    0.52239    0.04158   1.00
C5       0.21596    0.57583    0.04304   1.00
H2       0.29914    0.29884    0.44414   1.00
H2       0.28741    0.33429    0.48357   1.00
H2       0.26212    0.28626    0.48184   1.00
H2       0.46565    0.48180    0.17633   1.00
H2       0.50734    0.47771    0.21089   1.00
H2       0.47785    0.43379    0.19860   1.00
H2       0.05288    0.71111    0.28230   1.00
H2       0.01686    0.71664    0.24204   1.00
H2       0.01666    0.67181    0.27268   1.00
H2       0.22223    0.60693    0.05302   1.00
H2       0.21884    0.57402    0.00996   1.00
H2       0.18507    0.56734    0.05196   1.00
C5       0.37570    0.73348    -0.13218   1.00
H2       0.36240    0.70819    -0.14745   1.00
H2       0.39669    0.72094    -0.11090   1.00
C5       0.39717    0.75939    -0.16194   1.00
C5       0.43784    0.74271    -0.17123   1.00
H2       0.40050    0.78947    -0.15015   1.00
O3       0.27109    0.81761    0.02000   1.00
C4       0.24968    0.74972    -0.02100   1.00
C3c      0.28282    0.73868    -0.04243   1.00
H1       0.30901    0.72983    -0.02725   1.00
C3d      0.21567    0.76062    -0.04135   1.00
C3       0.28295    0.73938    -0.08354   1.00
O2       0.31469    0.72368    -0.10248   1.00
C3       0.21594    0.76207    -0.08227   1.00
H1       0.18962    0.77194    -0.09657   1.00
C2       0.24933    0.75140    -0.10439   1.00
C5       0.24089    0.84561    0.02121   1.00
H2       0.23373    0.85467    0.05162   1.00
H2       0.21374    0.83418    0.00734   1.00
C5       0.25478    0.88139    -0.00129   1.00
H2       0.26298    0.87214    -0.03137   1.00
H2       0.28168    0.89277    0.01302   1.00
C5       0.22290    0.91301    -0.00262   1.00
H2       0.21438    0.92219    0.02732   1.00
H2       0.19652    0.90212    -0.01811   1.00
C5       0.23807    0.94923    -0.02445   1.00
C5       0.15909    0.74298    -0.01105   1.00
C5       0.34218    0.75334    -0.11070   1.00
H2       0.17441    0.72269    0.00912   1.00
H2       0.14911    0.72622    -0.03712   1.00
H2       0.35286    0.76671    -0.08300   1.00
H2       0.32962    0.77732    -0.12895   1.00
H2       0.38108    0.76066    -0.19030   1.00
H2       0.11747    0.71698    0.05753   1.00
H2       0.09320    0.70336    0.01237   1.00
C2       0.24887    0.75243    0.10395   1.00
C3       0.24004    0.71747    0.08403   1.00
O2       0.22188    0.68711    0.10326   1.00
C3       0.25973    0.78550    0.08174   1.00
H1       0.26764    0.81241    0.09615   1.00
C3a      0.24124    0.71658    0.04287   1.00
H1       0.23224    0.69025    0.02798   1.00
C3b      0.25968    0.78488    0.04078   1.00
C4       0.25032    0.75028    0.02100   1.00
O3       0.18328    0.77456    -0.02167   1.00
C5       0.24926    0.65788    0.11280   1.00
H2       0.26367    0.64601    0.08609   1.00
C5       0.22694    0.62529    0.13326   1.00
H2       0.27220    0.66948    0.13274   1.00
H2       0.21210    0.60724    0.11068   1.00
H2       0.20346    0.63918    0.15093   1.00
C5       0.25320    0.59967    0.15918   1.00
H2       0.27819    0.58856    0.14176   1.00
C5       0.23023    0.56466    0.17547   1.00
H2       0.26439    0.61631    0.18493   1.00
C5       0.12357    0.75974    0.00983   1.00
H2       0.10471    0.77450    -0.01215   1.00
H2       0.13378    0.78268    0.03048   1.00
C5       0.10059    0.72814    0.03200   1.00
C5       0.06219    0.74533    0.04775   1.00
H2       0.43485    0.71762    -0.19286   1.00
C5       0.46351    0.77494    -0.18912   1.00
H2       0.45191    0.73159    -0.14323   1.00
C5       0.20375    0.97681    -0.03337   1.00
H2       0.26037    0.96505    -0.00551   1.00
H2       0.25241    0.93981    -0.05293   1.00
C5       0.25866    0.53590    0.19503   1.00
H2       0.20813    0.57537    0.19789   1.00
H2       0.21429    0.54934    0.15063   1.00
H2       0.06857    0.77365    0.06398   1.00
H2       0.04158    0.75149    0.02239   1.00
C5       0.04304    0.71596    0.07583   1.00
H2       0.44414    0.79914    -0.20116   1.00
H2       0.48357    0.78741    -0.16571   1.00
H2       0.48184    0.76212    -0.21374   1.00
H2       0.17633    0.96565    -0.01820   1.00
H2       0.21089    1.00734    -0.02229   1.00
H2       0.19860    0.97785    -0.06621   1.00
H2       0.28230    0.55288    0.21111   1.00
H2       0.24204    0.51686    0.21664   1.00
H2       0.27268    0.51666    0.17181   1.00
H2       0.05302    0.72223    0.10693   1.00
H2       0.00996    0.71884    0.07402   1.00
H2       0.05196    0.68507    0.06734   1.00
C5       0.87570    0.26652    0.63218   1.00
H2       0.86240    0.29181    0.64745   1.00
H2       0.89669    0.27906    0.61090   1.00
C5       0.89717    0.24061    0.66194   1.00
C5       0.93784    0.25729    0.67123   1.00
H2       0.90050    0.21053    0.65015   1.00
O3       0.77109    0.18239    0.48000   1.00
C4       0.74968    0.25028    0.52100   1.00
C3c      0.78282    0.26132    0.54243   1.00
H1       0.80901    0.27017    0.52725   1.00
C3d      0.71567    0.23938    0.54135   1.00
C3       0.78295    0.26062    0.58354   1.00
O2       0.81469    0.27632    0.60248   1.00
C3       0.71594    0.23793    0.58227   1.00
H1       0.68962    0.22806    0.59657   1.00
C2       0.74933    0.24860    0.60439   1.00
C5       0.74089    0.15439    0.47879   1.00
H2       0.73373    0.14533    0.44838   1.00
H2       0.71374    0.16582    0.49266   1.00
C5       0.75478    0.11861    0.50129   1.00
H2       0.76298    0.12786    0.53137   1.00
H2       0.78168    0.10723    0.48698   1.00
C5       0.72290    0.08699    0.50262   1.00
H2       0.71438    0.07781    0.47268   1.00
H2       0.69652    0.09788    0.51811   1.00
C5       0.73807    0.05077    0.52445   1.00
C5       0.65909    0.25702    0.51105   1.00
C5       0.84218    0.24666    0.61070   1.00
H2       0.67441    0.27731    0.49088   1.00
H2       0.64911    0.27378    0.53712   1.00
H2       0.85286    0.23329    0.58300   1.00
H2       0.82962    0.22268    0.62895   1.00
H2       0.88108    0.23934    0.69030   1.00
H2       0.61747    0.28302    0.44247   1.00
H2       0.59320    0.29664    0.48763   1.00
C2       0.74887    0.24757    0.39605   1.00
C3       0.74004    0.28253    0.41597   1.00
O2       0.72188    0.31289    0.39674   1.00
C3       0.75973    0.21450    0.41826   1.00
H1       0.76764    0.18759    0.40385   1.00
C3a      0.74124    0.28342    0.45713   1.00
H1       0.73224    0.30975    0.47202   1.00
C3b      0.75968    0.21512    0.45922   1.00
C4       0.75032    0.24972    0.47900   1.00
O3       0.68328    0.22544    0.52167   1.00
C5       0.74926    0.34212    0.38720   1.00
H2       0.76367    0.35399    0.41391   1.00
C5       0.72694    0.37471    0.36674   1.00
H2       0.77220    0.33052    0.36726   1.00
H2       0.71210    0.39276    0.38932   1.00
H2       0.70346    0.36082    0.34907   1.00
C5       0.75320    0.40033    0.34082   1.00
H2       0.77819    0.41144    0.35824   1.00
C5       0.73023    0.43534    0.32453   1.00
H2       0.76439    0.38369    0.31507   1.00
C5       0.62357    0.24026    0.49017   1.00
H2       0.60471    0.22550    0.51215   1.00
H2       0.63378    0.21732    0.46952   1.00
C5       0.60059    0.27186    0.46800   1.00
C5       0.56219    0.25467    0.45225   1.00
H2       0.93485    0.28238    0.69286   1.00
C5       0.96351    0.22506    0.68912   1.00
H2       0.95191    0.26841    0.64323   1.00
C5       0.70375    0.02319    0.53337   1.00
H2       0.76037    0.03495    0.50551   1.00
H2       0.75241    0.06019    0.55293   1.00
C5       0.75866    0.46410    0.30497   1.00
H2       0.70813    0.42463    0.30211   1.00
H2       0.71429    0.45066    0.34937   1.00
H2       0.56857    0.22635    0.43602   1.00
H2       0.54158    0.24851    0.47761   1.00
C5       0.54304    0.28404    0.42417   1.00
H2       0.94414    0.20086    0.70116   1.00
H2       0.98357    0.21259    0.66571   1.00
H2       0.98184    0.23788    0.71374   1.00
H2       0.67633    0.03435    0.51820   1.00
H2       0.71089    -0.00734   0.52229   1.00
H2       0.69860    0.02215    0.56621   1.00
H2       0.78230    0.44712    0.28889   1.00
H2       0.74204    0.48314    0.28336   1.00
H2       0.77268    0.48334    0.32819   1.00
H2       0.55302    0.27777    0.39307   1.00
H2       0.50996    0.28116    0.42598   1.00
H2       0.55196    0.31493    0.43266   1.00
C5       0.76652    0.63218    0.37570   1.00
H2       0.79181    0.64745    0.36240   1.00
H2       0.77906    0.61090    0.39669   1.00
C5       0.74061    0.66194    0.39717   1.00
C5       0.75729    0.67123    0.43784   1.00
H2       0.71053    0.65015    0.40050   1.00
O3       0.68239    0.48000    0.27109   1.00
C4       0.75028    0.52100    0.24968   1.00
C3c      0.76132    0.54243    0.28282   1.00
H1       0.77017    0.52725    0.30901   1.00
C3d      0.73938    0.54135    0.21567   1.00
C3       0.76062    0.58354    0.28295   1.00
O2       0.77632    0.60248    0.31469   1.00
C3       0.73793    0.58227    0.21594   1.00
H1       0.72806    0.59657    0.18962   1.00
C2       0.74860    0.60439    0.24933   1.00
C5       0.65439    0.47879    0.24089   1.00
H2       0.64533    0.44838    0.23373   1.00
H2       0.66582    0.49266    0.21374   1.00
C5       0.61861    0.50129    0.25478   1.00
H2       0.62786    0.53137    0.26298   1.00
H2       0.60723    0.48698    0.28168   1.00
C5       0.58699    0.50262    0.22290   1.00
H2       0.57781    0.47268    0.21438   1.00
H2       0.59788    0.51811    0.19652   1.00
C5       0.55077    0.52445    0.23807   1.00
C5       0.75702    0.51105    0.15909   1.00
C5       0.74666    0.61070    0.34218   1.00
H2       0.77731    0.49088    0.17441   1.00
H2       0.77378    0.53712    0.14911   1.00
H2       0.73329    0.58300    0.35286   1.00
H2       0.72268    0.62895    0.32962   1.00
H2       0.73934    0.69030    0.38108   1.00
H2       0.78302    0.44247    0.11747   1.00
H2       0.79664    0.48763    0.09320   1.00
C2       0.74757    0.39605    0.24887   1.00
C3       0.78253    0.41597    0.24004   1.00
O2       0.81289    0.39674    0.22188   1.00
C3       0.71450    0.41826    0.25973   1.00
H1       0.68759    0.40385    0.26764   1.00
C3a      0.78342    0.45713    0.24124   1.00
H1       0.80975    0.47202    0.23224   1.00
C3b      0.71512    0.45922    0.25968   1.00
C4       0.74972    0.47900    0.25032   1.00
O3       0.72544    0.52167    0.18328   1.00
C5       0.84212    0.38720    0.24926   1.00
H2       0.85399    0.41391    0.26367   1.00
C5       0.87471    0.36674    0.22694   1.00
H2       0.83052    0.36726    0.27220   1.00
H2       0.89276    0.38932    0.21210   1.00
H2       0.86082    0.34907    0.20346   1.00
C5       0.90033    0.34082    0.25320   1.00
H2       0.91144    0.35824    0.27819   1.00
C5       0.93534    0.32453    0.23023   1.00
H2       0.88369    0.31507    0.26439   1.00
C5       0.74026    0.49017    0.12357   1.00
H2       0.72550    0.51215    0.10471   1.00
H2       0.71732    0.46952    0.13378   1.00
C5       0.77186    0.46800    0.10059   1.00
C5       0.75467    0.45225    0.06219   1.00
H2       0.78238    0.69286    0.43485   1.00
C5       0.72506    0.68912    0.46351   1.00
H2       0.76841    0.64323    0.45191   1.00
C5       0.52319    0.53337    0.20375   1.00
H2       0.53495    0.50551    0.26037   1.00
H2       0.56019    0.55293    0.25241   1.00
C5       0.96410    0.30497    0.25866   1.00
H2       0.92463    0.30211    0.20813   1.00
H2       0.95066    0.34937    0.21429   1.00
H2       0.72635    0.43602    0.06857   1.00
H2       0.74851    0.47761    0.04158   1.00
C5       0.78404    0.42417    0.04304   1.00
H2       0.70086    0.70116    0.44414   1.00
H2       0.71259    0.66571    0.48357   1.00
H2       0.73788    0.71374    0.48184   1.00
H2       0.53435    0.51820    0.17633   1.00
H2       0.49266    0.52229    0.21089   1.00
H2       0.52215    0.56621    0.19860   1.00
H2       0.94712    0.28889    0.28230   1.00
H2       0.98314    0.28336    0.24204   1.00
H2       0.98334    0.32819    0.27268   1.00
H2       0.77777    0.39307    0.05302   1.00
H2       0.78116    0.42598    0.00996   1.00
H2       0.81493    0.43266    0.05196   1.00
C5       0.36782    0.37570    0.23348   1.00
H2       0.35255    0.36240    0.20819   1.00
H2       0.38910    0.39669    0.22094   1.00
C5       0.33806    0.39717    0.25939   1.00
C5       0.32877    0.43784    0.24271   1.00
H2       0.34985    0.40050    0.28947   1.00
O3       0.52000    0.27109    0.31761   1.00
C4       0.47900    0.24968    0.24972   1.00
C3c      0.45757    0.28282    0.23868   1.00
H1       0.47275    0.30901    0.22983   1.00
C3d      0.45865    0.21567    0.26062   1.00
C3       0.41646    0.28295    0.23938   1.00
O2       0.39752    0.31469    0.22368   1.00
C3       0.41773    0.21594    0.26207   1.00
H1       0.40343    0.18962    0.27194   1.00
C2       0.39561    0.24933    0.25140   1.00
C5       0.52121    0.24089    0.34561   1.00
H2       0.55162    0.23373    0.35467   1.00
H2       0.50734    0.21374    0.33418   1.00
C5       0.49871    0.25478    0.38139   1.00
H2       0.46863    0.26298    0.37214   1.00
H2       0.51302    0.28168    0.39277   1.00
C5       0.49738    0.22290    0.41301   1.00
H2       0.52732    0.21438    0.42219   1.00
H2       0.48189    0.19652    0.40212   1.00
C5       0.47555    0.23807    0.44923   1.00
C5       0.48895    0.15909    0.24298   1.00
C5       0.38930    0.34218    0.25334   1.00
H2       0.50912    0.17441    0.22269   1.00
H2       0.46288    0.14911    0.22622   1.00
H2       0.41700    0.35286    0.26671   1.00
H2       0.37105    0.32962    0.27732   1.00
H2       0.30970    0.38108    0.26066   1.00
H2       0.55753    0.11747    0.21698   1.00
H2       0.51237    0.09320    0.20336   1.00
C2       0.60395    0.24887    0.25243   1.00
C3       0.58403    0.24004    0.21747   1.00
O2       0.60326    0.22188    0.18711   1.00
C3       0.58174    0.25973    0.28550   1.00
H1       0.59615    0.26764    0.31241   1.00
C3a      0.54287    0.24124    0.21658   1.00
H1       0.52798    0.23224    0.19025   1.00
C3b      0.54078    0.25968    0.28488   1.00
C4       0.52100    0.25032    0.25028   1.00
O3       0.47833    0.18328    0.27456   1.00
C5       0.61280    0.24926    0.15788   1.00
H2       0.58609    0.26367    0.14601   1.00
C5       0.63326    0.22694    0.12529   1.00
H2       0.63274    0.27220    0.16948   1.00
H2       0.61068    0.21210    0.10724   1.00
H2       0.65093    0.20346    0.13918   1.00
C5       0.65918    0.25320    0.09967   1.00
H2       0.64176    0.27819    0.08856   1.00
C5       0.67547    0.23023    0.06466   1.00
H2       0.68493    0.26439    0.11631   1.00
C5       0.50983    0.12357    0.25974   1.00
H2       0.48785    0.10471    0.27450   1.00
H2       0.53048    0.13378    0.28268   1.00
C5       0.53200    0.10059    0.22814   1.00
C5       0.54775    0.06219    0.24533   1.00
H2       0.30714    0.43485    0.21762   1.00
C5       0.31088    0.46351    0.27494   1.00
H2       0.35677    0.45191    0.23159   1.00
C5       0.46663    0.20375    0.47681   1.00
H2       0.49449    0.26037    0.46505   1.00
H2       0.44707    0.25241    0.43981   1.00
C5       0.69503    0.25866    0.03590   1.00
H2       0.69789    0.20813    0.07537   1.00
H2       0.65063    0.21429    0.04934   1.00
H2       0.56398    0.06857    0.27365   1.00
H2       0.52239    0.04158    0.25149   1.00
C5       0.57583    0.04304    0.21596   1.00
H2       0.29884    0.44414    0.29914   1.00
H2       0.33429    0.48357    0.28741   1.00
H2       0.28626    0.48184    0.26212   1.00
H2       0.48180    0.17633    0.46565   1.00
H2       0.47771    0.21089    0.50734   1.00
H2       0.43379    0.19860    0.47785   1.00
H2       0.71111    0.28230    0.05288   1.00
H2       0.71664    0.24204    0.01686   1.00
H2       0.67181    0.27268    0.01666   1.00
H2       0.60693    0.05302    0.22223   1.00
H2       0.57402    0.00996    0.21884   1.00
H2       0.56734    0.05196    0.18507   1.00
C5       1.13218    0.37570    0.26652   1.00
H2       1.14745    0.36240    0.29181   1.00
H2       1.11090    0.39669    0.27906   1.00
C5       1.16194    0.39717    0.24061   1.00
C5       1.17123    0.43784    0.25729   1.00
H2       1.15015    0.40050    0.21053   1.00
O3       0.98000    0.27109    0.18239   1.00
C4       1.02100    0.24968    0.25028   1.00
C3c      1.04243    0.28282    0.26132   1.00
H1       1.02725    0.30901    0.27017   1.00
C3d      1.04135    0.21567    0.23938   1.00
C3       1.08354    0.28295    0.26062   1.00
O2       1.10248    0.31469    0.27632   1.00
C3       1.08227    0.21594    0.23793   1.00
H1       1.09657    0.18962    0.22806   1.00
C2       1.10439    0.24933    0.24860   1.00
C5       0.97879    0.24089    0.15439   1.00
H2       0.94838    0.23373    0.14533   1.00
H2       0.99266    0.21374    0.16582   1.00
C5       1.00129    0.25478    0.11861   1.00
H2       1.03137    0.26298    0.12786   1.00
H2       0.98698    0.28168    0.10723   1.00
C5       1.00262    0.22290    0.08699   1.00
H2       0.97268    0.21438    0.07781   1.00
H2       1.01811    0.19652    0.09788   1.00
C5       1.02445    0.23807    0.05077   1.00
C5       1.01105    0.15909    0.25702   1.00
C5       1.11070    0.34218    0.24666   1.00
H2       0.99088    0.17441    0.27731   1.00
H2       1.03712    0.14911    0.27378   1.00
H2       1.08300    0.35286    0.23329   1.00
H2       1.12895    0.32962    0.22268   1.00
H2       1.19030    0.38108    0.23934   1.00
H2       0.94247    0.11747    0.28302   1.00
H2       0.98763    0.09320    0.29664   1.00
C2       0.89605    0.24887    0.24757   1.00
C3       0.91597    0.24004    0.28253   1.00
O2       0.89674    0.22188    0.31289   1.00
C3       0.91826    0.25973    0.21450   1.00
H1       0.90385    0.26764    0.18759   1.00
C3a      0.95713    0.24124    0.28342   1.00
H1       0.97202    0.23224    0.30975   1.00
C3b      0.95922    0.25968    0.21512   1.00
C4       0.97900    0.25032    0.24972   1.00
O3       1.02167    0.18328    0.22544   1.00
C5       0.88720    0.24926    0.34212   1.00
H2       0.91391    0.26367    0.35399   1.00
C5       0.86674    0.22694    0.37471   1.00
H2       0.86726    0.27220    0.33052   1.00
H2       0.88932    0.21210    0.39276   1.00
H2       0.84907    0.20346    0.36082   1.00
C5       0.84082    0.25320    0.40033   1.00
H2       0.85824    0.27819    0.41144   1.00
C5       0.82453    0.23023    0.43534   1.00
H2       0.81507    0.26439    0.38369   1.00
C5       0.99017    0.12357    0.24026   1.00
H2       1.01215    0.10471    0.22550   1.00
H2       0.96952    0.13378    0.21732   1.00
C5       0.96800    0.10059    0.27186   1.00
C5       0.95225    0.06219    0.25467   1.00
H2       1.19286    0.43485    0.28238   1.00
C5       1.18912    0.46351    0.22506   1.00
H2       1.14323    0.45191    0.26841   1.00
C5       1.03337    0.20375    0.02319   1.00
H2       1.00551    0.26037    0.03495   1.00
H2       1.05293    0.25241    0.06019   1.00
C5       0.80497    0.25866    0.46410   1.00
H2       0.80211    0.20813    0.42463   1.00
H2       0.84937    0.21429    0.45066   1.00
H2       0.93602    0.06857    0.22635   1.00
H2       0.97761    0.04158    0.24851   1.00
C5       0.92417    0.04304    0.28404   1.00
H2       1.20116    0.44414    0.20086   1.00
H2       1.16571    0.48357    0.21259   1.00
H2       1.21374    0.48184    0.23788   1.00
H2       1.01820    0.17633    0.03435   1.00
H2       1.02229    0.21089    -0.00734   1.00
H2       1.06621    0.19860    0.02215   1.00
H2       0.78889    0.28230    0.44712   1.00
H2       0.78336    0.24204    0.48314   1.00
H2       0.82819    0.27268    0.48334   1.00
H2       0.89307    0.05302    0.27777   1.00
H2       0.92598    0.00996    0.28116   1.00
H2       0.93266    0.05196    0.31493   1.00
C5       0.73348    -0.13218   0.37570   1.00
H2       0.70819    -0.14745   0.36240   1.00
H2       0.72094    -0.11090   0.39669   1.00
C5       0.75939    -0.16194   0.39717   1.00
C5       0.74271    -0.17123   0.43784   1.00
H2       0.78947    -0.15015   0.40050   1.00
O3       0.81761    0.02000    0.27109   1.00
C4       0.74972    -0.02100   0.24968   1.00
C3c      0.73868    -0.04243   0.28282   1.00
H1       0.72983    -0.02725   0.30901   1.00
C3d      0.76062    -0.04135   0.21567   1.00
C3       0.73938    -0.08354   0.28295   1.00
O2       0.72368    -0.10248   0.31469   1.00
C3       0.76207    -0.08227   0.21594   1.00
H1       0.77194    -0.09657   0.18962   1.00
C2       0.75140    -0.10439   0.24933   1.00
C5       0.84561    0.02121    0.24089   1.00
H2       0.85467    0.05162    0.23373   1.00
H2       0.83418    0.00734    0.21374   1.00
C5       0.88139    -0.00129   0.25478   1.00
H2       0.87214    -0.03137   0.26298   1.00
H2       0.89277    0.01302    0.28168   1.00
C5       0.91301    -0.00262   0.22290   1.00
H2       0.92219    0.02732    0.21438   1.00
H2       0.90212    -0.01811   0.19652   1.00
C5       0.94923    -0.02445   0.23807   1.00
C5       0.74298    -0.01105   0.15909   1.00
C5       0.75334    -0.11070   0.34218   1.00
H2       0.72269    0.00912    0.17441   1.00
H2       0.72622    -0.03712   0.14911   1.00
H2       0.76671    -0.08300   0.35286   1.00
H2       0.77732    -0.12895   0.32962   1.00
H2       0.76066    -0.19030   0.38108   1.00
H2       0.71698    0.05753    0.11747   1.00
H2       0.70336    0.01237    0.09320   1.00
C2       0.75243    0.10395    0.24887   1.00
C3       0.71747    0.08403    0.24004   1.00
O2       0.68711    0.10326    0.22188   1.00
C3       0.78550    0.08174    0.25973   1.00
H1       0.81241    0.09615    0.26764   1.00
C3a      0.71658    0.04287    0.24124   1.00
H1       0.69025    0.02798    0.23224   1.00
C3b      0.78488    0.04078    0.25968   1.00
C4       0.75028    0.02100    0.25032   1.00
O3       0.77456    -0.02167   0.18328   1.00
C5       0.65788    0.11280    0.24926   1.00
H2       0.64601    0.08609    0.26367   1.00
C5       0.62529    0.13326    0.22694   1.00
H2       0.66948    0.13274    0.27220   1.00
H2       0.60724    0.11068    0.21210   1.00
H2       0.63918    0.15093    0.20346   1.00
C5       0.59967    0.15918    0.25320   1.00
H2       0.58856    0.14176    0.27819   1.00
C5       0.56466    0.17547    0.23023   1.00
H2       0.61631    0.18493    0.26439   1.00
C5       0.75974    0.00983    0.12357   1.00
H2       0.77450    -0.01215   0.10471   1.00
H2       0.78268    0.03048    0.13378   1.00
C5       0.72814    0.03200    0.10059   1.00
C5       0.74533    0.04775    0.06219   1.00
H2       0.71762    -0.19286   0.43485   1.00
C5       0.77494    -0.18912   0.46351   1.00
H2       0.73159    -0.14323   0.45191   1.00
C5       0.97681    -0.03337   0.20375   1.00
H2       0.96505    -0.00551   0.26037   1.00
H2       0.93981    -0.05293   0.25241   1.00
C5       0.53590    0.19503    0.25866   1.00
H2       0.57537    0.19789    0.20813   1.00
H2       0.54934    0.15063    0.21429   1.00
H2       0.77365    0.06398    0.06857   1.00
H2       0.75149    0.02239    0.04158   1.00
C5       0.71596    0.07583    0.04304   1.00
H2       0.79914    -0.20116   0.44414   1.00
H2       0.78741    -0.16571   0.48357   1.00
H2       0.76212    -0.21374   0.48184   1.00
H2       0.96565    -0.01820   0.17633   1.00
H2       1.00734    -0.02229   0.21089   1.00
H2       0.97785    -0.06621   0.19860   1.00
H2       0.55288    0.21111    0.28230   1.00
H2       0.51686    0.21664    0.24204   1.00
H2       0.51666    0.17181    0.27268   1.00
H2       0.72223    0.10693    0.05302   1.00
H2       0.71884    0.07402    0.00996   1.00
H2       0.68507    0.06734    0.05196   1.00
C5       0.87570    0.23348    -0.13218   1.00
H2       0.86240    0.20819    -0.14745   1.00
H2       0.89669    0.22094    -0.11090   1.00
C5       0.89717    0.25939    -0.16194   1.00
C5       0.93784    0.24271    -0.17123   1.00
H2       0.90050    0.28947    -0.15015   1.00
O3       0.77109    0.31761    0.02000   1.00
C4       0.74968    0.24972    -0.02100   1.00
C3c      0.78282    0.23868    -0.04243   1.00
H1       0.80901    0.22983    -0.02725   1.00
C3d      0.71567    0.26062    -0.04135   1.00
C3       0.78295    0.23938    -0.08354   1.00
O2       0.81469    0.22368    -0.10248   1.00
C3       0.71594    0.26207    -0.08227   1.00
H1       0.68962    0.27194    -0.09657   1.00
C2       0.74933    0.25140    -0.10439   1.00
C5       0.74089    0.34561    0.02121   1.00
H2       0.73373    0.35467    0.05162   1.00
H2       0.71374    0.33418    0.00734   1.00
C5       0.75478    0.38139    -0.00129   1.00
H2       0.76298    0.37214    -0.03137   1.00
H2       0.78168    0.39277    0.01302   1.00
C5       0.72290    0.41301    -0.00262   1.00
H2       0.71438    0.42219    0.02732   1.00
H2       0.69652    0.40212    -0.01811   1.00
C5       0.73807    0.44923    -0.02445   1.00
C5       0.65909    0.24298    -0.01105   1.00
C5       0.84218    0.25334    -0.11070   1.00
H2       0.67441    0.22269    0.00912   1.00
H2       0.64911    0.22622    -0.03712   1.00
H2       0.85286    0.26671    -0.08300   1.00
H2       0.82962    0.27732    -0.12895   1.00
H2       0.88108    0.26066    -0.19030   1.00
H2       0.61747    0.21698    0.05753   1.00
H2       0.59320    0.20336    0.01237   1.00
C2       0.74887    0.25243    0.10395   1.00
C3       0.74004    0.21747    0.08403   1.00
O2       0.72188    0.18711    0.10326   1.00
C3       0.75973    0.28550    0.08174   1.00
H1       0.76764    0.31241    0.09615   1.00
C3a      0.74124    0.21658    0.04287   1.00
H1       0.73224    0.19025    0.02798   1.00
C3b      0.75968    0.28488    0.04078   1.00
C4       0.75032    0.25028    0.02100   1.00
O3       0.68328    0.27456    -0.02167   1.00
C5       0.74926    0.15788    0.11280   1.00
H2       0.76367    0.14601    0.08609   1.00
C5       0.72694    0.12529    0.13326   1.00
H2       0.77220    0.16948    0.13274   1.00
H2       0.71210    0.10724    0.11068   1.00
H2       0.70346    0.13918    0.15093   1.00
C5       0.75320    0.09967    0.15918   1.00
H2       0.77819    0.08856    0.14176   1.00
C5       0.73023    0.06466    0.17547   1.00
H2       0.76439    0.11631    0.18493   1.00
C5       0.62357    0.25974    0.00983   1.00
H2       0.60471    0.27450    -0.01215   1.00
H2       0.63378    0.28268    0.03048   1.00
C5       0.60059    0.22814    0.03200   1.00
C5       0.56219    0.24533    0.04775   1.00
H2       0.93485    0.21762    -0.19286   1.00
C5       0.96351    0.27494    -0.18912   1.00
H2       0.95191    0.23159    -0.14323   1.00
C5       0.70375    0.47681    -0.03337   1.00
H2       0.76037    0.46505    -0.00551   1.00
H2       0.75241    0.43981    -0.05293   1.00
C5       0.75866    0.03590    0.19503   1.00
H2       0.70813    0.07537    0.19789   1.00
H2       0.71429    0.04934    0.15063   1.00
H2       0.56857    0.27365    0.06398   1.00
H2       0.54158    0.25149    0.02239   1.00
C5       0.54304    0.21596    0.07583   1.00
H2       0.94414    0.29914    -0.20116   1.00
H2       0.98357    0.28741    -0.16571   1.00
H2       0.98184    0.26212    -0.21374   1.00
H2       0.67633    0.46565    -0.01820   1.00
H2       0.71089    0.50734    -0.02229   1.00
H2       0.69860    0.47785    -0.06621   1.00
H2       0.78230    0.05288    0.21111   1.00
H2       0.74204    0.01686    0.21664   1.00
H2       0.77268    0.01666    0.17181   1.00
H2       0.55302    0.22223    0.10693   1.00
H2       0.50996    0.21884    0.07402   1.00
H2       0.55196    0.18507    0.06734   1.00
