data_IRMOF10_SG202_Ligand7_label_l.

_audit_creation_method             'generated by an auxiliary program of Tobunporous'

_symmetry_space_group_name_H-M     'P 1'
_symmetry_Int_Tables_number        1
_symmetry_cell_setting             triclinic

_cell_length_a                    34.2800
_cell_length_b                    34.2800
_cell_length_c                    34.2800
_cell_angle_alpha                 90.0000
_cell_angle_beta                  90.0000
_cell_angle_gamma                 90.0000

loop_
_atom_site_label
_atom_site_fract_x
_atom_site_fract_y
_atom_site_fract_z
_atom_site_occupancy
O1       0.75000    0.75000    0.75000   1.00
Zn1      0.71720    0.78280    0.78280   1.00
Zn1      0.78280    0.71720    0.78280   1.00
Zn1      0.78280    0.78280    0.71720   1.00
Zn1      0.71720    0.71720    0.71720   1.00
O2       0.72650    0.77350    0.83820   1.00
O2       0.72650    0.83820    0.77350   1.00
O2       0.66180    0.77350    0.77350   1.00
O2       0.77350    0.72650    0.83820   1.00
O2       0.83820    0.72650    0.77350   1.00
O2       0.77350    0.66180    0.77350   1.00
O2       0.77350    0.83820    0.72650   1.00
O2       0.83820    0.77350    0.72650   1.00
O2       0.77350    0.77350    0.66180   1.00
O2       0.66180    0.72650    0.72650   1.00
O2       0.72650    0.66180    0.72650   1.00
O2       0.72650    0.72650    0.66180   1.00
C1       0.75000    0.75000    0.85520   1.00
C1       0.75000    0.85520    0.75000   1.00
C1       0.64480    0.75000    0.75000   1.00
C1       0.85520    0.75000    0.75000   1.00
C1       0.75000    0.64480    0.75000   1.00
C1       0.75000    0.75000    0.64480   1.00
O1       0.25000    0.25000    0.75000   1.00
Zn1      0.21720    0.28280    0.78280   1.00
Zn1      0.28280    0.21720    0.78280   1.00
Zn1      0.28280    0.28280    0.71720   1.00
Zn1      0.21720    0.21720    0.71720   1.00
O2       0.22650    0.27350    0.83820   1.00
O2       0.22650    0.33820    0.77350   1.00
O2       0.16180    0.27350    0.77350   1.00
O2       0.27350    0.22650    0.83820   1.00
O2       0.33820    0.22650    0.77350   1.00
O2       0.27350    0.16180    0.77350   1.00
O2       0.27350    0.33820    0.72650   1.00
O2       0.33820    0.27350    0.72650   1.00
O2       0.27350    0.27350    0.66180   1.00
O2       0.16180    0.22650    0.72650   1.00
O2       0.22650    0.16180    0.72650   1.00
O2       0.22650    0.22650    0.66180   1.00
C1       0.25000    0.25000    0.85520   1.00
C1       0.25000    0.35520    0.75000   1.00
C1       0.14480    0.25000    0.75000   1.00
C1       0.35520    0.25000    0.75000   1.00
C1       0.25000    0.14480    0.75000   1.00
C1       0.25000    0.25000    0.64480   1.00
O1       0.25000    0.75000    0.25000   1.00
Zn1      0.21720    0.78280    0.28280   1.00
Zn1      0.28280    0.71720    0.28280   1.00
Zn1      0.28280    0.78280    0.21720   1.00
Zn1      0.21720    0.71720    0.21720   1.00
O2       0.22650    0.77350    0.33820   1.00
O2       0.22650    0.83820    0.27350   1.00
O2       0.16180    0.77350    0.27350   1.00
O2       0.27350    0.72650    0.33820   1.00
O2       0.33820    0.72650    0.27350   1.00
O2       0.27350    0.66180    0.27350   1.00
O2       0.27350    0.83820    0.22650   1.00
O2       0.33820    0.77350    0.22650   1.00
O2       0.27350    0.77350    0.16180   1.00
O2       0.16180    0.72650    0.22650   1.00
O2       0.22650    0.66180    0.22650   1.00
O2       0.22650    0.72650    0.16180   1.00
C1       0.25000    0.75000    0.35520   1.00
C1       0.25000    0.85520    0.25000   1.00
C1       0.14480    0.75000    0.25000   1.00
C1       0.35520    0.75000    0.25000   1.00
C1       0.25000    0.64480    0.25000   1.00
C1       0.25000    0.75000    0.14480   1.00
O1       0.75000    0.25000    0.25000   1.00
Zn1      0.71720    0.28280    0.28280   1.00
Zn1      0.78280    0.21720    0.28280   1.00
Zn1      0.78280    0.28280    0.21720   1.00
Zn1      0.71720    0.21720    0.21720   1.00
O2       0.72650    0.27350    0.33820   1.00
O2       0.72650    0.33820    0.27350   1.00
O2       0.66180    0.27350    0.27350   1.00
O2       0.77350    0.22650    0.33820   1.00
O2       0.83820    0.22650    0.27350   1.00
O2       0.77350    0.16180    0.27350   1.00
O2       0.77350    0.33820    0.22650   1.00
O2       0.83820    0.27350    0.22650   1.00
O2       0.77350    0.27350    0.16180   1.00
O2       0.66180    0.22650    0.22650   1.00
O2       0.72650    0.16180    0.22650   1.00
O2       0.72650    0.22650    0.16180   1.00
C1       0.75000    0.25000    0.35520   1.00
C1       0.75000    0.35520    0.25000   1.00
C1       0.64480    0.25000    0.25000   1.00
C1       0.85520    0.25000    0.25000   1.00
C1       0.75000    0.14480    0.25000   1.00
C1       0.75000    0.25000    0.14480   1.00
O1       0.25000    0.25000    0.25000   1.00
Zn1      0.28280    0.21720    0.21720   1.00
Zn1      0.21720    0.28280    0.21720   1.00
Zn1      0.21720    0.21720    0.28280   1.00
Zn1      0.28280    0.28280    0.28280   1.00
O2       0.27350    0.22650    0.16180   1.00
O2       0.27350    0.16180    0.22650   1.00
O2       0.33820    0.22650    0.22650   1.00
O2       0.22650    0.27350    0.16180   1.00
O2       0.16180    0.27350    0.22650   1.00
O2       0.22650    0.33820    0.22650   1.00
O2       0.22650    0.16180    0.27350   1.00
O2       0.16180    0.22650    0.27350   1.00
O2       0.22650    0.22650    0.33820   1.00
O2       0.33820    0.27350    0.27350   1.00
O2       0.27350    0.33820    0.27350   1.00
O2       0.27350    0.27350    0.33820   1.00
C1       0.25000    0.25000    0.14480   1.00
C1       0.25000    0.14480    0.25000   1.00
C1       0.35520    0.25000    0.25000   1.00
C1       0.14480    0.25000    0.25000   1.00
C1       0.25000    0.35520    0.25000   1.00
C1       0.25000    0.25000    0.35520   1.00
O1       0.75000    0.75000    0.25000   1.00
Zn1      0.78280    0.71720    0.21720   1.00
Zn1      0.71720    0.78280    0.21720   1.00
Zn1      0.71720    0.71720    0.28280   1.00
Zn1      0.78280    0.78280    0.28280   1.00
O2       0.77350    0.72650    0.16180   1.00
O2       0.77350    0.66180    0.22650   1.00
O2       0.83820    0.72650    0.22650   1.00
O2       0.72650    0.77350    0.16180   1.00
O2       0.66180    0.77350    0.22650   1.00
O2       0.72650    0.83820    0.22650   1.00
O2       0.72650    0.66180    0.27350   1.00
O2       0.66180    0.72650    0.27350   1.00
O2       0.72650    0.72650    0.33820   1.00
O2       0.83820    0.77350    0.27350   1.00
O2       0.77350    0.83820    0.27350   1.00
O2       0.77350    0.77350    0.33820   1.00
C1       0.75000    0.75000    0.14480   1.00
C1       0.75000    0.64480    0.25000   1.00
C1       0.85520    0.75000    0.25000   1.00
C1       0.64480    0.75000    0.25000   1.00
C1       0.75000    0.85520    0.25000   1.00
C1       0.75000    0.75000    0.35520   1.00
O1       0.75000    0.25000    0.75000   1.00
Zn1      0.78280    0.21720    0.71720   1.00
Zn1      0.71720    0.28280    0.71720   1.00
Zn1      0.71720    0.21720    0.78280   1.00
Zn1      0.78280    0.28280    0.78280   1.00
O2       0.77350    0.22650    0.66180   1.00
O2       0.77350    0.16180    0.72650   1.00
O2       0.83820    0.22650    0.72650   1.00
O2       0.72650    0.27350    0.66180   1.00
O2       0.66180    0.27350    0.72650   1.00
O2       0.72650    0.33820    0.72650   1.00
O2       0.72650    0.16180    0.77350   1.00
O2       0.66180    0.22650    0.77350   1.00
O2       0.72650    0.22650    0.83820   1.00
O2       0.83820    0.27350    0.77350   1.00
O2       0.77350    0.33820    0.77350   1.00
O2       0.77350    0.27350    0.83820   1.00
C1       0.75000    0.25000    0.64480   1.00
C1       0.75000    0.14480    0.75000   1.00
C1       0.85520    0.25000    0.75000   1.00
C1       0.64480    0.25000    0.75000   1.00
C1       0.75000    0.35520    0.75000   1.00
C1       0.75000    0.25000    0.85520   1.00
O1       0.25000    0.75000    0.75000   1.00
Zn1      0.28280    0.71720    0.71720   1.00
Zn1      0.21720    0.78280    0.71720   1.00
Zn1      0.21720    0.71720    0.78280   1.00
Zn1      0.28280    0.78280    0.78280   1.00
O2       0.27350    0.72650    0.66180   1.00
O2       0.27350    0.66180    0.72650   1.00
O2       0.33820    0.72650    0.72650   1.00
O2       0.22650    0.77350    0.66180   1.00
O2       0.16180    0.77350    0.72650   1.00
O2       0.22650    0.83820    0.72650   1.00
O2       0.22650    0.66180    0.77350   1.00
O2       0.16180    0.72650    0.77350   1.00
O2       0.22650    0.72650    0.83820   1.00
O2       0.33820    0.77350    0.77350   1.00
O2       0.27350    0.83820    0.77350   1.00
O2       0.27350    0.77350    0.83820   1.00
C1       0.25000    0.75000    0.64480   1.00
C1       0.25000    0.64480    0.75000   1.00
C1       0.35520    0.75000    0.75000   1.00
C1       0.14480    0.75000    0.75000   1.00
C1       0.25000    0.85520    0.75000   1.00
C1       0.25000    0.75000    0.85520   1.00
C5       0.85056    0.67279    1.13218   1.00
H2       0.85904    0.70007    1.14745   1.00
H2       0.87427    0.66681    1.11090   1.00
C5       0.84741    0.63928    1.16194   1.00
C5       0.88796    0.62232    1.17123   1.00
H2       0.82849    0.61566    1.15015   1.00
O3       0.71710    0.68729    0.98000   1.00
C4       0.74997    0.75042    1.02100   1.00
C3c      0.78121    0.73480    1.04243   1.00
H1       0.80599    0.72253    1.02725   1.00
C3d      0.71821    0.76677    1.04135   1.00
C3       0.78081    0.73421    1.08354   1.00
O2       0.81435    0.72286    1.10248   1.00
C3       0.71739    0.76555    1.08227   1.00
H1       0.69179    0.77719    1.09657   1.00
C2       0.74854    0.74948    1.10439   1.00
C5       0.67594    0.68884    0.97879   1.00
H2       0.66448    0.68749    0.94838   1.00
H2       0.66483    0.71613    0.99266   1.00
C5       0.66047    0.65372    1.00129   1.00
H2       0.67280    0.65447    1.03137   1.00
H2       0.67144    0.62665    0.98698   1.00
C5       0.61556    0.65391    1.00262   1.00
H2       0.60305    0.65344    0.97268   1.00
H2       0.60461    0.68026    1.01811   1.00
C5       0.60067    0.61757    1.02445   1.00
C5       0.69069    0.81925    1.01105   1.00
C5       0.81281    0.68245    1.11070   1.00
H2       0.71587    0.82276    0.99088   1.00
H2       0.69549    0.83816    1.03712   1.00
H2       0.81091    0.66544    1.08300   1.00
H2       0.78697    0.67438    1.12895   1.00
H2       0.83514    0.64976    1.19030   1.00
H2       0.67965    0.86707    0.94247   1.00
H2       0.67212    0.89386    0.98763   1.00
C2       0.74748    0.74909    0.89605   1.00
C3       0.76596    0.78005    0.91597   1.00
O2       0.77459    0.81435    0.89674   1.00
C3       0.73177    0.71802    0.91826   1.00
H1       0.71834    0.69340    0.90385   1.00
C3a      0.76744    0.77983    0.95713   1.00
H1       0.77970    0.80480    0.97202   1.00
C3b      0.73218    0.71849    0.95922   1.00
C4       0.75003    0.74958    0.97900   1.00
O3       0.68546    0.77982    1.02167   1.00
C5       0.81462    0.81565    0.88720   1.00
H2       0.83321    0.81385    0.91391   1.00
C5       0.82189    0.85448    0.86674   1.00
H2       0.82264    0.79123    0.86726   1.00
H2       0.82416    0.87774    0.88932   1.00
H2       0.79546    0.86127    0.84907   1.00
C5       0.85857    0.85403    0.84082   1.00
H2       0.88410    0.84421    0.85824   1.00
C5       0.86709    0.89502    0.82453   1.00
H2       0.85472    0.83435    0.81507   1.00
C5       0.65372    0.83252    0.99017   1.00
H2       0.62995    0.83543    1.01215   1.00
H2       0.64471    0.80908    0.96952   1.00
C5       0.65982    0.87112    0.96800   1.00
C5       0.62052    0.88611    0.95225   1.00
H2       0.90359    0.64217    1.19286   1.00
C5       0.88333    0.58138    1.18912   1.00
H2       0.90578    0.62023    1.14323   1.00
C5       0.55690    0.62235    1.03337   1.00
H2       0.60525    0.59062    1.00551   1.00
H2       0.61748    0.61409    1.05293   1.00
C5       0.90753    0.89526    0.80497   1.00
H2       0.84389    0.90308    0.80211   1.00
H2       0.86666    0.91713    0.84937   1.00
H2       0.60499    0.86159    0.93602   1.00
H2       0.60159    0.89634    0.97761   1.00
C5       0.62774    0.92042    0.92417   1.00
H2       0.85252    0.57797    1.20116   1.00
H2       0.88869    0.55838    1.16571   1.00
H2       0.90535    0.57748    1.21374   1.00
H2       0.54541    0.64962    1.01820   1.00
H2       0.54036    0.59571    1.02229   1.00
H2       0.55253    0.62525    1.06621   1.00
H2       0.91224    0.86653    0.78889   1.00
H2       0.90924    0.92047    0.78336   1.00
H2       0.93105    0.89894    0.82819   1.00
H2       0.63037    0.90894    0.89307   1.00
H2       0.60232    0.94178    0.92598   1.00
H2       0.65590    0.93596    0.93266   1.00
C5       0.67279    1.13218    0.85056   1.00
H2       0.70007    1.14745    0.85904   1.00
H2       0.66681    1.11090    0.87427   1.00
C5       0.63928    1.16194    0.84741   1.00
C5       0.62232    1.17123    0.88796   1.00
H2       0.61566    1.15015    0.82849   1.00
O3       0.68729    0.98000    0.71710   1.00
C4       0.75042    1.02100    0.74997   1.00
C3c      0.73480    1.04243    0.78121   1.00
H1       0.72253    1.02725    0.80599   1.00
C3d      0.76677    1.04135    0.71821   1.00
C3       0.73421    1.08354    0.78081   1.00
O2       0.72286    1.10248    0.81435   1.00
C3       0.76555    1.08227    0.71739   1.00
H1       0.77719    1.09657    0.69179   1.00
C2       0.74948    1.10439    0.74854   1.00
C5       0.68884    0.97879    0.67594   1.00
H2       0.68749    0.94838    0.66448   1.00
H2       0.71613    0.99266    0.66483   1.00
C5       0.65372    1.00129    0.66047   1.00
H2       0.65447    1.03137    0.67280   1.00
H2       0.62665    0.98698    0.67144   1.00
C5       0.65391    1.00262    0.61556   1.00
H2       0.65344    0.97268    0.60305   1.00
H2       0.68026    1.01811    0.60461   1.00
C5       0.61757    1.02445    0.60067   1.00
C5       0.81925    1.01105    0.69069   1.00
C5       0.68245    1.11070    0.81281   1.00
H2       0.82276    0.99088    0.71587   1.00
H2       0.83816    1.03712    0.69549   1.00
H2       0.66544    1.08300    0.81091   1.00
H2       0.67438    1.12895    0.78697   1.00
H2       0.64976    1.19030    0.83514   1.00
H2       0.86707    0.94247    0.67965   1.00
H2       0.89386    0.98763    0.67212   1.00
C2       0.74909    0.89605    0.74748   1.00
C3       0.78005    0.91597    0.76596   1.00
O2       0.81435    0.89674    0.77459   1.00
C3       0.71802    0.91826    0.73177   1.00
H1       0.69340    0.90385    0.71834   1.00
C3a      0.77983    0.95713    0.76744   1.00
H1       0.80480    0.97202    0.77970   1.00
C3b      0.71849    0.95922    0.73218   1.00
C4       0.74958    0.97900    0.75003   1.00
O3       0.77982    1.02167    0.68546   1.00
C5       0.81565    0.88720    0.81462   1.00
H2       0.81385    0.91391    0.83321   1.00
C5       0.85448    0.86674    0.82189   1.00
H2       0.79123    0.86726    0.82264   1.00
H2       0.87774    0.88932    0.82416   1.00
H2       0.86127    0.84907    0.79546   1.00
C5       0.85403    0.84082    0.85857   1.00
H2       0.84421    0.85824    0.88410   1.00
C5       0.89502    0.82453    0.86709   1.00
H2       0.83435    0.81507    0.85472   1.00
C5       0.83252    0.99017    0.65372   1.00
H2       0.83543    1.01215    0.62995   1.00
H2       0.80908    0.96952    0.64471   1.00
C5       0.87112    0.96800    0.65982   1.00
C5       0.88611    0.95225    0.62052   1.00
H2       0.64217    1.19286    0.90359   1.00
C5       0.58138    1.18912    0.88333   1.00
H2       0.62023    1.14323    0.90578   1.00
C5       0.62235    1.03337    0.55690   1.00
H2       0.59062    1.00551    0.60525   1.00
H2       0.61409    1.05293    0.61748   1.00
C5       0.89526    0.80497    0.90753   1.00
H2       0.90308    0.80211    0.84389   1.00
H2       0.91713    0.84937    0.86666   1.00
H2       0.86159    0.93602    0.60499   1.00
H2       0.89634    0.97761    0.60159   1.00
C5       0.92042    0.92417    0.62774   1.00
H2       0.57797    1.20116    0.85252   1.00
H2       0.55838    1.16571    0.88869   1.00
H2       0.57748    1.21374    0.90535   1.00
H2       0.64962    1.01820    0.54541   1.00
H2       0.59571    1.02229    0.54036   1.00
H2       0.62525    1.06621    0.55253   1.00
H2       0.86653    0.78889    0.91224   1.00
H2       0.92047    0.78336    0.90924   1.00
H2       0.89894    0.82819    0.93105   1.00
H2       0.90894    0.89307    0.63037   1.00
H2       0.94178    0.92598    0.60232   1.00
H2       0.93596    0.93266    0.65590   1.00
C5       0.36782    0.85056    0.82721   1.00
H2       0.35255    0.85904    0.79993   1.00
H2       0.38910    0.87427    0.83319   1.00
C5       0.33806    0.84741    0.86072   1.00
C5       0.32877    0.88796    0.87768   1.00
H2       0.34985    0.82849    0.88434   1.00
O3       0.52000    0.71710    0.81271   1.00
C4       0.47900    0.74997    0.74958   1.00
C3c      0.45757    0.78121    0.76520   1.00
H1       0.47275    0.80599    0.77747   1.00
C3d      0.45865    0.71821    0.73323   1.00
C3       0.41646    0.78081    0.76579   1.00
O2       0.39752    0.81435    0.77714   1.00
C3       0.41773    0.71739    0.73445   1.00
H1       0.40343    0.69179    0.72281   1.00
C2       0.39561    0.74854    0.75052   1.00
C5       0.52121    0.67594    0.81116   1.00
H2       0.55162    0.66448    0.81251   1.00
H2       0.50734    0.66483    0.78387   1.00
C5       0.49871    0.66047    0.84628   1.00
H2       0.46863    0.67280    0.84553   1.00
H2       0.51302    0.67144    0.87335   1.00
C5       0.49738    0.61556    0.84609   1.00
H2       0.52732    0.60305    0.84656   1.00
H2       0.48189    0.60461    0.81974   1.00
C5       0.47555    0.60067    0.88243   1.00
C5       0.48895    0.69069    0.68075   1.00
C5       0.38930    0.81281    0.81755   1.00
H2       0.50912    0.71587    0.67724   1.00
H2       0.46288    0.69549    0.66184   1.00
H2       0.41700    0.81091    0.83456   1.00
H2       0.37105    0.78697    0.82562   1.00
H2       0.30970    0.83514    0.85024   1.00
H2       0.55753    0.67965    0.63293   1.00
H2       0.51237    0.67212    0.60614   1.00
C2       0.60395    0.74748    0.75091   1.00
C3       0.58403    0.76596    0.71995   1.00
O2       0.60326    0.77459    0.68565   1.00
C3       0.58174    0.73177    0.78198   1.00
H1       0.59615    0.71834    0.80660   1.00
C3a      0.54287    0.76744    0.72017   1.00
H1       0.52798    0.77970    0.69520   1.00
C3b      0.54078    0.73218    0.78151   1.00
C4       0.52100    0.75003    0.75042   1.00
O3       0.47833    0.68546    0.72018   1.00
C5       0.61280    0.81462    0.68435   1.00
H2       0.58609    0.83321    0.68615   1.00
C5       0.63326    0.82189    0.64552   1.00
H2       0.63274    0.82264    0.70877   1.00
H2       0.61068    0.82416    0.62226   1.00
H2       0.65093    0.79546    0.63873   1.00
C5       0.65918    0.85857    0.64597   1.00
H2       0.64176    0.88410    0.65579   1.00
C5       0.67547    0.86709    0.60498   1.00
H2       0.68493    0.85472    0.66565   1.00
C5       0.50983    0.65372    0.66748   1.00
H2       0.48785    0.62995    0.66457   1.00
H2       0.53048    0.64471    0.69092   1.00
C5       0.53200    0.65982    0.62888   1.00
C5       0.54775    0.62052    0.61389   1.00
H2       0.30714    0.90359    0.85783   1.00
C5       0.31088    0.88333    0.91862   1.00
H2       0.35677    0.90578    0.87977   1.00
C5       0.46663    0.55690    0.87765   1.00
H2       0.49449    0.60525    0.90938   1.00
H2       0.44707    0.61748    0.88591   1.00
C5       0.69503    0.90753    0.60474   1.00
H2       0.69789    0.84389    0.59692   1.00
H2       0.65063    0.86666    0.58287   1.00
H2       0.56398    0.60499    0.63841   1.00
H2       0.52239    0.60159    0.60366   1.00
C5       0.57583    0.62774    0.57958   1.00
H2       0.29884    0.85252    0.92203   1.00
H2       0.33429    0.88869    0.94162   1.00
H2       0.28626    0.90535    0.92252   1.00
H2       0.48180    0.54541    0.85038   1.00
H2       0.47771    0.54036    0.90429   1.00
H2       0.43379    0.55253    0.87475   1.00
H2       0.71111    0.91224    0.63347   1.00
H2       0.71664    0.90924    0.57953   1.00
H2       0.67181    0.93105    0.60106   1.00
H2       0.60693    0.63037    0.59106   1.00
H2       0.57402    0.60232    0.55822   1.00
H2       0.56734    0.65590    0.56404   1.00
C5       1.13218    0.85056    0.67279   1.00
H2       1.14745    0.85904    0.70007   1.00
H2       1.11090    0.87427    0.66681   1.00
C5       1.16194    0.84741    0.63928   1.00
C5       1.17123    0.88796    0.62232   1.00
H2       1.15015    0.82849    0.61566   1.00
O3       0.98000    0.71710    0.68729   1.00
C4       1.02100    0.74997    0.75042   1.00
C3c      1.04243    0.78121    0.73480   1.00
H1       1.02725    0.80599    0.72253   1.00
C3d      1.04135    0.71821    0.76677   1.00
C3       1.08354    0.78081    0.73421   1.00
O2       1.10248    0.81435    0.72286   1.00
C3       1.08227    0.71739    0.76555   1.00
H1       1.09657    0.69179    0.77719   1.00
C2       1.10439    0.74854    0.74948   1.00
C5       0.97879    0.67594    0.68884   1.00
H2       0.94838    0.66448    0.68749   1.00
H2       0.99266    0.66483    0.71613   1.00
C5       1.00129    0.66047    0.65372   1.00
H2       1.03137    0.67280    0.65447   1.00
H2       0.98698    0.67144    0.62665   1.00
C5       1.00262    0.61556    0.65391   1.00
H2       0.97268    0.60305    0.65344   1.00
H2       1.01811    0.60461    0.68026   1.00
C5       1.02445    0.60067    0.61757   1.00
C5       1.01105    0.69069    0.81925   1.00
C5       1.11070    0.81281    0.68245   1.00
H2       0.99088    0.71587    0.82276   1.00
H2       1.03712    0.69549    0.83816   1.00
H2       1.08300    0.81091    0.66544   1.00
H2       1.12895    0.78697    0.67438   1.00
H2       1.19030    0.83514    0.64976   1.00
H2       0.94247    0.67965    0.86707   1.00
H2       0.98763    0.67212    0.89386   1.00
C2       0.89605    0.74748    0.74909   1.00
C3       0.91597    0.76596    0.78005   1.00
O2       0.89674    0.77459    0.81435   1.00
C3       0.91826    0.73177    0.71802   1.00
H1       0.90385    0.71834    0.69340   1.00
C3a      0.95713    0.76744    0.77983   1.00
H1       0.97202    0.77970    0.80480   1.00
C3b      0.95922    0.73218    0.71849   1.00
C4       0.97900    0.75003    0.74958   1.00
O3       1.02167    0.68546    0.77982   1.00
C5       0.88720    0.81462    0.81565   1.00
H2       0.91391    0.83321    0.81385   1.00
C5       0.86674    0.82189    0.85448   1.00
H2       0.86726    0.82264    0.79123   1.00
H2       0.88932    0.82416    0.87774   1.00
H2       0.84907    0.79546    0.86127   1.00
C5       0.84082    0.85857    0.85403   1.00
H2       0.85824    0.88410    0.84421   1.00
C5       0.82453    0.86709    0.89502   1.00
H2       0.81507    0.85472    0.83435   1.00
C5       0.99017    0.65372    0.83252   1.00
H2       1.01215    0.62995    0.83543   1.00
H2       0.96952    0.64471    0.80908   1.00
C5       0.96800    0.65982    0.87112   1.00
C5       0.95225    0.62052    0.88611   1.00
H2       1.19286    0.90359    0.64217   1.00
C5       1.18912    0.88333    0.58138   1.00
H2       1.14323    0.90578    0.62023   1.00
C5       1.03337    0.55690    0.62235   1.00
H2       1.00551    0.60525    0.59062   1.00
H2       1.05293    0.61748    0.61409   1.00
C5       0.80497    0.90753    0.89526   1.00
H2       0.80211    0.84389    0.90308   1.00
H2       0.84937    0.86666    0.91713   1.00
H2       0.93602    0.60499    0.86159   1.00
H2       0.97761    0.60159    0.89634   1.00
C5       0.92417    0.62774    0.92042   1.00
H2       1.20116    0.85252    0.57797   1.00
H2       1.16571    0.88869    0.55838   1.00
H2       1.21374    0.90535    0.57748   1.00
H2       1.01820    0.54541    0.64962   1.00
H2       1.02229    0.54036    0.59571   1.00
H2       1.06621    0.55253    0.62525   1.00
H2       0.78889    0.91224    0.86653   1.00
H2       0.78336    0.90924    0.92047   1.00
H2       0.82819    0.93105    0.89894   1.00
H2       0.89307    0.63037    0.90894   1.00
H2       0.92598    0.60232    0.94178   1.00
H2       0.93266    0.65590    0.93596   1.00
C5       0.82721    0.36782    0.85056   1.00
H2       0.79993    0.35255    0.85904   1.00
H2       0.83319    0.38910    0.87427   1.00
C5       0.86072    0.33806    0.84741   1.00
C5       0.87768    0.32877    0.88796   1.00
H2       0.88434    0.34985    0.82849   1.00
O3       0.81271    0.52000    0.71710   1.00
C4       0.74958    0.47900    0.74997   1.00
C3c      0.76520    0.45757    0.78121   1.00
H1       0.77747    0.47275    0.80599   1.00
C3d      0.73323    0.45865    0.71821   1.00
C3       0.76579    0.41646    0.78081   1.00
O2       0.77714    0.39752    0.81435   1.00
C3       0.73445    0.41773    0.71739   1.00
H1       0.72281    0.40343    0.69179   1.00
C2       0.75052    0.39561    0.74854   1.00
C5       0.81116    0.52121    0.67594   1.00
H2       0.81251    0.55162    0.66448   1.00
H2       0.78387    0.50734    0.66483   1.00
C5       0.84628    0.49871    0.66047   1.00
H2       0.84553    0.46863    0.67280   1.00
H2       0.87335    0.51302    0.67144   1.00
C5       0.84609    0.49738    0.61556   1.00
H2       0.84656    0.52732    0.60305   1.00
H2       0.81974    0.48189    0.60461   1.00
C5       0.88243    0.47555    0.60067   1.00
C5       0.68075    0.48895    0.69069   1.00
C5       0.81755    0.38930    0.81281   1.00
H2       0.67724    0.50912    0.71587   1.00
H2       0.66184    0.46288    0.69549   1.00
H2       0.83456    0.41700    0.81091   1.00
H2       0.82562    0.37105    0.78697   1.00
H2       0.85024    0.30970    0.83514   1.00
H2       0.63293    0.55753    0.67965   1.00
H2       0.60614    0.51237    0.67212   1.00
C2       0.75091    0.60395    0.74748   1.00
C3       0.71995    0.58403    0.76596   1.00
O2       0.68565    0.60326    0.77459   1.00
C3       0.78198    0.58174    0.73177   1.00
H1       0.80660    0.59615    0.71834   1.00
C3a      0.72017    0.54287    0.76744   1.00
H1       0.69520    0.52798    0.77970   1.00
C3b      0.78151    0.54078    0.73218   1.00
C4       0.75042    0.52100    0.75003   1.00
O3       0.72018    0.47833    0.68546   1.00
C5       0.68435    0.61280    0.81462   1.00
H2       0.68615    0.58609    0.83321   1.00
C5       0.64552    0.63326    0.82189   1.00
H2       0.70877    0.63274    0.82264   1.00
H2       0.62226    0.61068    0.82416   1.00
H2       0.63873    0.65093    0.79546   1.00
C5       0.64597    0.65918    0.85857   1.00
H2       0.65579    0.64176    0.88410   1.00
C5       0.60498    0.67547    0.86709   1.00
H2       0.66565    0.68493    0.85472   1.00
C5       0.66748    0.50983    0.65372   1.00
H2       0.66457    0.48785    0.62995   1.00
H2       0.69092    0.53048    0.64471   1.00
C5       0.62888    0.53200    0.65982   1.00
C5       0.61389    0.54775    0.62052   1.00
H2       0.85783    0.30714    0.90359   1.00
C5       0.91862    0.31088    0.88333   1.00
H2       0.87977    0.35677    0.90578   1.00
C5       0.87765    0.46663    0.55690   1.00
H2       0.90938    0.49449    0.60525   1.00
H2       0.88591    0.44707    0.61748   1.00
C5       0.60474    0.69503    0.90753   1.00
H2       0.59692    0.69789    0.84389   1.00
H2       0.58287    0.65063    0.86666   1.00
H2       0.63841    0.56398    0.60499   1.00
H2       0.60366    0.52239    0.60159   1.00
C5       0.57958    0.57583    0.62774   1.00
H2       0.92203    0.29884    0.85252   1.00
H2       0.94162    0.33429    0.88869   1.00
H2       0.92252    0.28626    0.90535   1.00
H2       0.85038    0.48180    0.54541   1.00
H2       0.90429    0.47771    0.54036   1.00
H2       0.87475    0.43379    0.55253   1.00
H2       0.63347    0.71111    0.91224   1.00
H2       0.57953    0.71664    0.90924   1.00
H2       0.60106    0.67181    0.93105   1.00
H2       0.59106    0.60693    0.63037   1.00
H2       0.55822    0.57402    0.60232   1.00
H2       0.56404    0.56734    0.65590   1.00
C5       0.85056    0.82721    0.36782   1.00
H2       0.85904    0.79993    0.35255   1.00
H2       0.87427    0.83319    0.38910   1.00
C5       0.84741    0.86072    0.33806   1.00
C5       0.88796    0.87768    0.32877   1.00
H2       0.82849    0.88434    0.34985   1.00
O3       0.71710    0.81271    0.52000   1.00
C4       0.74997    0.74958    0.47900   1.00
C3c      0.78121    0.76520    0.45757   1.00
H1       0.80599    0.77747    0.47275   1.00
C3d      0.71821    0.73323    0.45865   1.00
C3       0.78081    0.76579    0.41646   1.00
O2       0.81435    0.77714    0.39752   1.00
C3       0.71739    0.73445    0.41773   1.00
H1       0.69179    0.72281    0.40343   1.00
C2       0.74854    0.75052    0.39561   1.00
C5       0.67594    0.81116    0.52121   1.00
H2       0.66448    0.81251    0.55162   1.00
H2       0.66483    0.78387    0.50734   1.00
C5       0.66047    0.84628    0.49871   1.00
H2       0.67280    0.84553    0.46863   1.00
H2       0.67144    0.87335    0.51302   1.00
C5       0.61556    0.84609    0.49738   1.00
H2       0.60305    0.84656    0.52732   1.00
H2       0.60461    0.81974    0.48189   1.00
C5       0.60067    0.88243    0.47555   1.00
C5       0.69069    0.68075    0.48895   1.00
C5       0.81281    0.81755    0.38930   1.00
H2       0.71587    0.67724    0.50912   1.00
H2       0.69549    0.66184    0.46288   1.00
H2       0.81091    0.83456    0.41700   1.00
H2       0.78697    0.82562    0.37105   1.00
H2       0.83514    0.85024    0.30970   1.00
H2       0.67965    0.63293    0.55753   1.00
H2       0.67212    0.60614    0.51237   1.00
C2       0.74748    0.75091    0.60395   1.00
C3       0.76596    0.71995    0.58403   1.00
O2       0.77459    0.68565    0.60326   1.00
C3       0.73177    0.78198    0.58174   1.00
H1       0.71834    0.80660    0.59615   1.00
C3a      0.76744    0.72017    0.54287   1.00
H1       0.77970    0.69520    0.52798   1.00
C3b      0.73218    0.78151    0.54078   1.00
C4       0.75003    0.75042    0.52100   1.00
O3       0.68546    0.72018    0.47833   1.00
C5       0.81462    0.68435    0.61280   1.00
H2       0.83321    0.68615    0.58609   1.00
C5       0.82189    0.64552    0.63326   1.00
H2       0.82264    0.70877    0.63274   1.00
H2       0.82416    0.62226    0.61068   1.00
H2       0.79546    0.63873    0.65093   1.00
C5       0.85857    0.64597    0.65918   1.00
H2       0.88410    0.65579    0.64176   1.00
C5       0.86709    0.60498    0.67547   1.00
H2       0.85472    0.66565    0.68493   1.00
C5       0.65372    0.66748    0.50983   1.00
H2       0.62995    0.66457    0.48785   1.00
H2       0.64471    0.69092    0.53048   1.00
C5       0.65982    0.62888    0.53200   1.00
C5       0.62052    0.61389    0.54775   1.00
H2       0.90359    0.85783    0.30714   1.00
C5       0.88333    0.91862    0.31088   1.00
H2       0.90578    0.87977    0.35677   1.00
C5       0.55690    0.87765    0.46663   1.00
H2       0.60525    0.90938    0.49449   1.00
H2       0.61748    0.88591    0.44707   1.00
C5       0.90753    0.60474    0.69503   1.00
H2       0.84389    0.59692    0.69789   1.00
H2       0.86666    0.58287    0.65063   1.00
H2       0.60499    0.63841    0.56398   1.00
H2       0.60159    0.60366    0.52239   1.00
C5       0.62774    0.57958    0.57583   1.00
H2       0.85252    0.92203    0.29884   1.00
H2       0.88869    0.94162    0.33429   1.00
H2       0.90535    0.92252    0.28626   1.00
H2       0.54541    0.85038    0.48180   1.00
H2       0.54036    0.90429    0.47771   1.00
H2       0.55253    0.87475    0.43379   1.00
H2       0.91224    0.63347    0.71111   1.00
H2       0.90924    0.57953    0.71664   1.00
H2       0.93105    0.60106    0.67181   1.00
H2       0.63037    0.59106    0.60693   1.00
H2       0.60232    0.55822    0.57402   1.00
H2       0.65590    0.56404    0.56734   1.00
C5       0.35056    0.17279    1.13218   1.00
H2       0.35904    0.20007    1.14745   1.00
H2       0.37427    0.16681    1.11090   1.00
C5       0.34741    0.13928    1.16194   1.00
C5       0.38796    0.12232    1.17123   1.00
H2       0.32849    0.11566    1.15015   1.00
O3       0.21710    0.18729    0.98000   1.00
C4       0.24997    0.25042    1.02100   1.00
C3c      0.28121    0.23480    1.04243   1.00
H1       0.30599    0.22253    1.02725   1.00
C3d      0.21821    0.26677    1.04135   1.00
C3       0.28081    0.23421    1.08354   1.00
O2       0.31435    0.22286    1.10248   1.00
C3       0.21739    0.26555    1.08227   1.00
H1       0.19179    0.27719    1.09657   1.00
C2       0.24854    0.24948    1.10439   1.00
C5       0.17594    0.18884    0.97879   1.00
H2       0.16448    0.18749    0.94838   1.00
H2       0.16483    0.21613    0.99266   1.00
C5       0.16047    0.15372    1.00129   1.00
H2       0.17280    0.15447    1.03137   1.00
H2       0.17144    0.12665    0.98698   1.00
C5       0.11556    0.15391    1.00262   1.00
H2       0.10305    0.15344    0.97268   1.00
H2       0.10461    0.18026    1.01811   1.00
C5       0.10067    0.11757    1.02445   1.00
C5       0.19069    0.31925    1.01105   1.00
C5       0.31281    0.18245    1.11070   1.00
H2       0.21587    0.32276    0.99088   1.00
H2       0.19549    0.33816    1.03712   1.00
H2       0.31091    0.16544    1.08300   1.00
H2       0.28697    0.17438    1.12895   1.00
H2       0.33514    0.14976    1.19030   1.00
H2       0.17965    0.36707    0.94247   1.00
H2       0.17212    0.39386    0.98763   1.00
C2       0.24748    0.24909    0.89605   1.00
C3       0.26596    0.28005    0.91597   1.00
O2       0.27459    0.31435    0.89674   1.00
C3       0.23177    0.21802    0.91826   1.00
H1       0.21834    0.19340    0.90385   1.00
C3a      0.26744    0.27983    0.95713   1.00
H1       0.27970    0.30480    0.97202   1.00
C3b      0.23218    0.21849    0.95922   1.00
C4       0.25003    0.24958    0.97900   1.00
O3       0.18546    0.27982    1.02167   1.00
C5       0.31462    0.31565    0.88720   1.00
H2       0.33321    0.31385    0.91391   1.00
C5       0.32189    0.35448    0.86674   1.00
H2       0.32264    0.29123    0.86726   1.00
H2       0.32416    0.37774    0.88932   1.00
H2       0.29546    0.36127    0.84907   1.00
C5       0.35857    0.35403    0.84082   1.00
H2       0.38410    0.34421    0.85824   1.00
C5       0.36709    0.39502    0.82453   1.00
H2       0.35472    0.33435    0.81507   1.00
C5       0.15372    0.33252    0.99017   1.00
H2       0.12995    0.33543    1.01215   1.00
H2       0.14471    0.30908    0.96952   1.00
C5       0.15982    0.37112    0.96800   1.00
C5       0.12052    0.38611    0.95225   1.00
H2       0.40359    0.14217    1.19286   1.00
C5       0.38333    0.08138    1.18912   1.00
H2       0.40578    0.12023    1.14323   1.00
C5       0.05690    0.12235    1.03337   1.00
H2       0.10525    0.09062    1.00551   1.00
H2       0.11748    0.11409    1.05293   1.00
C5       0.40753    0.39526    0.80497   1.00
H2       0.34389    0.40308    0.80211   1.00
H2       0.36666    0.41713    0.84937   1.00
H2       0.10499    0.36159    0.93602   1.00
H2       0.10159    0.39634    0.97761   1.00
C5       0.12774    0.42042    0.92417   1.00
H2       0.35252    0.07797    1.20116   1.00
H2       0.38869    0.05838    1.16571   1.00
H2       0.40535    0.07748    1.21374   1.00
H2       0.04541    0.14962    1.01820   1.00
H2       0.04036    0.09571    1.02229   1.00
H2       0.05253    0.12525    1.06621   1.00
H2       0.41224    0.36653    0.78889   1.00
H2       0.40924    0.42047    0.78336   1.00
H2       0.43105    0.39894    0.82819   1.00
H2       0.13037    0.40894    0.89307   1.00
H2       0.10232    0.44178    0.92598   1.00
H2       0.15590    0.43596    0.93266   1.00
C5       0.17279    0.63218    0.85056   1.00
H2       0.20007    0.64745    0.85904   1.00
H2       0.16681    0.61090    0.87427   1.00
C5       0.13928    0.66194    0.84741   1.00
C5       0.12232    0.67123    0.88796   1.00
H2       0.11566    0.65015    0.82849   1.00
O3       0.18729    0.48000    0.71710   1.00
C4       0.25042    0.52100    0.74997   1.00
C3c      0.23480    0.54243    0.78121   1.00
H1       0.22253    0.52725    0.80599   1.00
C3d      0.26677    0.54135    0.71821   1.00
C3       0.23421    0.58354    0.78081   1.00
O2       0.22286    0.60248    0.81435   1.00
C3       0.26555    0.58227    0.71739   1.00
H1       0.27719    0.59657    0.69179   1.00
C2       0.24948    0.60439    0.74854   1.00
C5       0.18884    0.47879    0.67594   1.00
H2       0.18749    0.44838    0.66448   1.00
H2       0.21613    0.49266    0.66483   1.00
C5       0.15372    0.50129    0.66047   1.00
H2       0.15447    0.53137    0.67280   1.00
H2       0.12665    0.48698    0.67144   1.00
C5       0.15391    0.50262    0.61556   1.00
H2       0.15344    0.47268    0.60305   1.00
H2       0.18026    0.51811    0.60461   1.00
C5       0.11757    0.52445    0.60067   1.00
C5       0.31925    0.51105    0.69069   1.00
C5       0.18245    0.61070    0.81281   1.00
H2       0.32276    0.49088    0.71587   1.00
H2       0.33816    0.53712    0.69549   1.00
H2       0.16544    0.58300    0.81091   1.00
H2       0.17438    0.62895    0.78697   1.00
H2       0.14976    0.69030    0.83514   1.00
H2       0.36707    0.44247    0.67965   1.00
H2       0.39386    0.48763    0.67212   1.00
C2       0.24909    0.39605    0.74748   1.00
C3       0.28005    0.41597    0.76596   1.00
O2       0.31435    0.39674    0.77459   1.00
C3       0.21802    0.41826    0.73177   1.00
H1       0.19340    0.40385    0.71834   1.00
C3a      0.27983    0.45713    0.76744   1.00
H1       0.30480    0.47202    0.77970   1.00
C3b      0.21849    0.45922    0.73218   1.00
C4       0.24958    0.47900    0.75003   1.00
O3       0.27982    0.52167    0.68546   1.00
C5       0.31565    0.38720    0.81462   1.00
H2       0.31385    0.41391    0.83321   1.00
C5       0.35448    0.36674    0.82189   1.00
H2       0.29123    0.36726    0.82264   1.00
H2       0.37774    0.38932    0.82416   1.00
H2       0.36127    0.34907    0.79546   1.00
C5       0.35403    0.34082    0.85857   1.00
H2       0.34421    0.35824    0.88410   1.00
C5       0.39502    0.32453    0.86709   1.00
H2       0.33435    0.31507    0.85472   1.00
C5       0.33252    0.49017    0.65372   1.00
H2       0.33543    0.51215    0.62995   1.00
H2       0.30908    0.46952    0.64471   1.00
C5       0.37112    0.46800    0.65982   1.00
C5       0.38611    0.45225    0.62052   1.00
H2       0.14217    0.69286    0.90359   1.00
C5       0.08138    0.68912    0.88333   1.00
H2       0.12023    0.64323    0.90578   1.00
C5       0.12235    0.53337    0.55690   1.00
H2       0.09062    0.50551    0.60525   1.00
H2       0.11409    0.55293    0.61748   1.00
C5       0.39526    0.30497    0.90753   1.00
H2       0.40308    0.30211    0.84389   1.00
H2       0.41713    0.34937    0.86666   1.00
H2       0.36159    0.43602    0.60499   1.00
H2       0.39634    0.47761    0.60159   1.00
C5       0.42042    0.42417    0.62774   1.00
H2       0.07797    0.70116    0.85252   1.00
H2       0.05838    0.66571    0.88869   1.00
H2       0.07748    0.71374    0.90535   1.00
H2       0.14962    0.51820    0.54541   1.00
H2       0.09571    0.52229    0.54036   1.00
H2       0.12525    0.56621    0.55253   1.00
H2       0.36653    0.28889    0.91224   1.00
H2       0.42047    0.28336    0.90924   1.00
H2       0.39894    0.32819    0.93105   1.00
H2       0.40894    0.39307    0.63037   1.00
H2       0.44178    0.42598    0.60232   1.00
H2       0.43596    0.43266    0.65590   1.00
C5       -0.13218   0.35056    0.82721   1.00
H2       -0.14745   0.35904    0.79993   1.00
H2       -0.11090   0.37427    0.83319   1.00
C5       -0.16194   0.34741    0.86072   1.00
C5       -0.17123   0.38796    0.87768   1.00
H2       -0.15015   0.32849    0.88434   1.00
O3       0.02000    0.21710    0.81271   1.00
C4       -0.02100   0.24997    0.74958   1.00
C3c      -0.04243   0.28121    0.76520   1.00
H1       -0.02725   0.30599    0.77747   1.00
C3d      -0.04135   0.21821    0.73323   1.00
C3       -0.08354   0.28081    0.76579   1.00
O2       -0.10248   0.31435    0.77714   1.00
C3       -0.08227   0.21739    0.73445   1.00
H1       -0.09657   0.19179    0.72281   1.00
C2       -0.10439   0.24854    0.75052   1.00
C5       0.02121    0.17594    0.81116   1.00
H2       0.05162    0.16448    0.81251   1.00
H2       0.00734    0.16483    0.78387   1.00
C5       -0.00129   0.16047    0.84628   1.00
H2       -0.03137   0.17280    0.84553   1.00
H2       0.01302    0.17144    0.87335   1.00
C5       -0.00262   0.11556    0.84609   1.00
H2       0.02732    0.10305    0.84656   1.00
H2       -0.01811   0.10461    0.81974   1.00
C5       -0.02445   0.10067    0.88243   1.00
C5       -0.01105   0.19069    0.68075   1.00
C5       -0.11070   0.31281    0.81755   1.00
H2       0.00912    0.21587    0.67724   1.00
H2       -0.03712   0.19549    0.66184   1.00
H2       -0.08300   0.31091    0.83456   1.00
H2       -0.12895   0.28697    0.82562   1.00
H2       -0.19030   0.33514    0.85024   1.00
H2       0.05753    0.17965    0.63293   1.00
H2       0.01237    0.17212    0.60614   1.00
C2       0.10395    0.24748    0.75091   1.00
C3       0.08403    0.26596    0.71995   1.00
O2       0.10326    0.27459    0.68565   1.00
C3       0.08174    0.23177    0.78198   1.00
H1       0.09615    0.21834    0.80660   1.00
C3a      0.04287    0.26744    0.72017   1.00
H1       0.02798    0.27970    0.69520   1.00
C3b      0.04078    0.23218    0.78151   1.00
C4       0.02100    0.25003    0.75042   1.00
O3       -0.02167   0.18546    0.72018   1.00
C5       0.11280    0.31462    0.68435   1.00
H2       0.08609    0.33321    0.68615   1.00
C5       0.13326    0.32189    0.64552   1.00
H2       0.13274    0.32264    0.70877   1.00
H2       0.11068    0.32416    0.62226   1.00
H2       0.15093    0.29546    0.63873   1.00
C5       0.15918    0.35857    0.64597   1.00
H2       0.14176    0.38410    0.65579   1.00
C5       0.17547    0.36709    0.60498   1.00
H2       0.18493    0.35472    0.66565   1.00
C5       0.00983    0.15372    0.66748   1.00
H2       -0.01215   0.12995    0.66457   1.00
H2       0.03048    0.14471    0.69092   1.00
C5       0.03200    0.15982    0.62888   1.00
C5       0.04775    0.12052    0.61389   1.00
H2       -0.19286   0.40359    0.85783   1.00
C5       -0.18912   0.38333    0.91862   1.00
H2       -0.14323   0.40578    0.87977   1.00
C5       -0.03337   0.05690    0.87765   1.00
H2       -0.00551   0.10525    0.90938   1.00
H2       -0.05293   0.11748    0.88591   1.00
C5       0.19503    0.40753    0.60474   1.00
H2       0.19789    0.34389    0.59692   1.00
H2       0.15063    0.36666    0.58287   1.00
H2       0.06398    0.10499    0.63841   1.00
H2       0.02239    0.10159    0.60366   1.00
C5       0.07583    0.12774    0.57958   1.00
H2       -0.20116   0.35252    0.92203   1.00
H2       -0.16571   0.38869    0.94162   1.00
H2       -0.21374   0.40535    0.92252   1.00
H2       -0.01820   0.04541    0.85038   1.00
H2       -0.02229   0.04036    0.90429   1.00
H2       -0.06621   0.05253    0.87475   1.00
H2       0.21111    0.41224    0.63347   1.00
H2       0.21664    0.40924    0.57953   1.00
H2       0.17181    0.43105    0.60106   1.00
H2       0.10693    0.13037    0.59106   1.00
H2       0.07402    0.10232    0.55822   1.00
H2       0.06734    0.15590    0.56404   1.00
C5       0.63218    0.35056    0.67279   1.00
H2       0.64745    0.35904    0.70007   1.00
H2       0.61090    0.37427    0.66681   1.00
C5       0.66194    0.34741    0.63928   1.00
C5       0.67123    0.38796    0.62232   1.00
H2       0.65015    0.32849    0.61566   1.00
O3       0.48000    0.21710    0.68729   1.00
C4       0.52100    0.24997    0.75042   1.00
C3c      0.54243    0.28121    0.73480   1.00
H1       0.52725    0.30599    0.72253   1.00
C3d      0.54135    0.21821    0.76677   1.00
C3       0.58354    0.28081    0.73421   1.00
O2       0.60248    0.31435    0.72286   1.00
C3       0.58227    0.21739    0.76555   1.00
H1       0.59657    0.19179    0.77719   1.00
C2       0.60439    0.24854    0.74948   1.00
C5       0.47879    0.17594    0.68884   1.00
H2       0.44838    0.16448    0.68749   1.00
H2       0.49266    0.16483    0.71613   1.00
C5       0.50129    0.16047    0.65372   1.00
H2       0.53137    0.17280    0.65447   1.00
H2       0.48698    0.17144    0.62665   1.00
C5       0.50262    0.11556    0.65391   1.00
H2       0.47268    0.10305    0.65344   1.00
H2       0.51811    0.10461    0.68026   1.00
C5       0.52445    0.10067    0.61757   1.00
C5       0.51105    0.19069    0.81925   1.00
C5       0.61070    0.31281    0.68245   1.00
H2       0.49088    0.21587    0.82276   1.00
H2       0.53712    0.19549    0.83816   1.00
H2       0.58300    0.31091    0.66544   1.00
H2       0.62895    0.28697    0.67438   1.00
H2       0.69030    0.33514    0.64976   1.00
H2       0.44247    0.17965    0.86707   1.00
H2       0.48763    0.17212    0.89386   1.00
C2       0.39605    0.24748    0.74909   1.00
C3       0.41597    0.26596    0.78005   1.00
O2       0.39674    0.27459    0.81435   1.00
C3       0.41826    0.23177    0.71802   1.00
H1       0.40385    0.21834    0.69340   1.00
C3a      0.45713    0.26744    0.77983   1.00
H1       0.47202    0.27970    0.80480   1.00
C3b      0.45922    0.23218    0.71849   1.00
C4       0.47900    0.25003    0.74958   1.00
O3       0.52167    0.18546    0.77982   1.00
C5       0.38720    0.31462    0.81565   1.00
H2       0.41391    0.33321    0.81385   1.00
C5       0.36674    0.32189    0.85448   1.00
H2       0.36726    0.32264    0.79123   1.00
H2       0.38932    0.32416    0.87774   1.00
H2       0.34907    0.29546    0.86127   1.00
C5       0.34082    0.35857    0.85403   1.00
H2       0.35824    0.38410    0.84421   1.00
C5       0.32453    0.36709    0.89502   1.00
H2       0.31507    0.35472    0.83435   1.00
C5       0.49017    0.15372    0.83252   1.00
H2       0.51215    0.12995    0.83543   1.00
H2       0.46952    0.14471    0.80908   1.00
C5       0.46800    0.15982    0.87112   1.00
C5       0.45225    0.12052    0.88611   1.00
H2       0.69286    0.40359    0.64217   1.00
C5       0.68912    0.38333    0.58138   1.00
H2       0.64323    0.40578    0.62023   1.00
C5       0.53337    0.05690    0.62235   1.00
H2       0.50551    0.10525    0.59062   1.00
H2       0.55293    0.11748    0.61409   1.00
C5       0.30497    0.40753    0.89526   1.00
H2       0.30211    0.34389    0.90308   1.00
H2       0.34937    0.36666    0.91713   1.00
H2       0.43602    0.10499    0.86159   1.00
H2       0.47761    0.10159    0.89634   1.00
C5       0.42417    0.12774    0.92042   1.00
H2       0.70116    0.35252    0.57797   1.00
H2       0.66571    0.38869    0.55838   1.00
H2       0.71374    0.40535    0.57748   1.00
H2       0.51820    0.04541    0.64962   1.00
H2       0.52229    0.04036    0.59571   1.00
H2       0.56621    0.05253    0.62525   1.00
H2       0.28889    0.41224    0.86653   1.00
H2       0.28336    0.40924    0.92047   1.00
H2       0.32819    0.43105    0.89894   1.00
H2       0.39307    0.13037    0.90894   1.00
H2       0.42598    0.10232    0.94178   1.00
H2       0.43266    0.15590    0.93596   1.00
C5       0.32721    -0.13218   0.85056   1.00
H2       0.29993    -0.14745   0.85904   1.00
H2       0.33319    -0.11090   0.87427   1.00
C5       0.36072    -0.16194   0.84741   1.00
C5       0.37768    -0.17123   0.88796   1.00
H2       0.38434    -0.15015   0.82849   1.00
O3       0.31271    0.02000    0.71710   1.00
C4       0.24958    -0.02100   0.74997   1.00
C3c      0.26520    -0.04243   0.78121   1.00
H1       0.27747    -0.02725   0.80599   1.00
C3d      0.23323    -0.04135   0.71821   1.00
C3       0.26579    -0.08354   0.78081   1.00
O2       0.27714    -0.10248   0.81435   1.00
C3       0.23445    -0.08227   0.71739   1.00
H1       0.22281    -0.09657   0.69179   1.00
C2       0.25052    -0.10439   0.74854   1.00
C5       0.31116    0.02121    0.67594   1.00
H2       0.31251    0.05162    0.66448   1.00
H2       0.28387    0.00734    0.66483   1.00
C5       0.34628    -0.00129   0.66047   1.00
H2       0.34553    -0.03137   0.67280   1.00
H2       0.37335    0.01302    0.67144   1.00
C5       0.34609    -0.00262   0.61556   1.00
H2       0.34656    0.02732    0.60305   1.00
H2       0.31974    -0.01811   0.60461   1.00
C5       0.38243    -0.02445   0.60067   1.00
C5       0.18075    -0.01105   0.69069   1.00
C5       0.31755    -0.11070   0.81281   1.00
H2       0.17724    0.00912    0.71587   1.00
H2       0.16184    -0.03712   0.69549   1.00
H2       0.33456    -0.08300   0.81091   1.00
H2       0.32562    -0.12895   0.78697   1.00
H2       0.35024    -0.19030   0.83514   1.00
H2       0.13293    0.05753    0.67965   1.00
H2       0.10614    0.01237    0.67212   1.00
C2       0.25091    0.10395    0.74748   1.00
C3       0.21995    0.08403    0.76596   1.00
O2       0.18565    0.10326    0.77459   1.00
C3       0.28198    0.08174    0.73177   1.00
H1       0.30660    0.09615    0.71834   1.00
C3a      0.22017    0.04287    0.76744   1.00
H1       0.19520    0.02798    0.77970   1.00
C3b      0.28151    0.04078    0.73218   1.00
C4       0.25042    0.02100    0.75003   1.00
O3       0.22018    -0.02167   0.68546   1.00
C5       0.18435    0.11280    0.81462   1.00
H2       0.18615    0.08609    0.83321   1.00
C5       0.14552    0.13326    0.82189   1.00
H2       0.20877    0.13274    0.82264   1.00
H2       0.12226    0.11068    0.82416   1.00
H2       0.13873    0.15093    0.79546   1.00
C5       0.14597    0.15918    0.85857   1.00
H2       0.15579    0.14176    0.88410   1.00
C5       0.10498    0.17547    0.86709   1.00
H2       0.16565    0.18493    0.85472   1.00
C5       0.16748    0.00983    0.65372   1.00
H2       0.16457    -0.01215   0.62995   1.00
H2       0.19092    0.03048    0.64471   1.00
C5       0.12888    0.03200    0.65982   1.00
C5       0.11389    0.04775    0.62052   1.00
H2       0.35783    -0.19286   0.90359   1.00
C5       0.41862    -0.18912   0.88333   1.00
H2       0.37977    -0.14323   0.90578   1.00
C5       0.37765    -0.03337   0.55690   1.00
H2       0.40938    -0.00551   0.60525   1.00
H2       0.38591    -0.05293   0.61748   1.00
C5       0.10474    0.19503    0.90753   1.00
H2       0.09692    0.19789    0.84389   1.00
H2       0.08287    0.15063    0.86666   1.00
H2       0.13841    0.06398    0.60499   1.00
H2       0.10366    0.02239    0.60159   1.00
C5       0.07958    0.07583    0.62774   1.00
H2       0.42203    -0.20116   0.85252   1.00
H2       0.44162    -0.16571   0.88869   1.00
H2       0.42252    -0.21374   0.90535   1.00
H2       0.35038    -0.01820   0.54541   1.00
H2       0.40429    -0.02229   0.54036   1.00
H2       0.37475    -0.06621   0.55253   1.00
H2       0.13347    0.21111    0.91224   1.00
H2       0.07953    0.21664    0.90924   1.00
H2       0.10106    0.17181    0.93105   1.00
H2       0.09106    0.10693    0.63037   1.00
H2       0.05822    0.07402    0.60232   1.00
H2       0.06404    0.06734    0.65590   1.00
C5       0.35056    0.32721    0.36782   1.00
H2       0.35904    0.29993    0.35255   1.00
H2       0.37427    0.33319    0.38910   1.00
C5       0.34741    0.36072    0.33806   1.00
C5       0.38796    0.37768    0.32877   1.00
H2       0.32849    0.38434    0.34985   1.00
O3       0.21710    0.31271    0.52000   1.00
C4       0.24997    0.24958    0.47900   1.00
C3c      0.28121    0.26520    0.45757   1.00
H1       0.30599    0.27747    0.47275   1.00
C3d      0.21821    0.23323    0.45865   1.00
C3       0.28081    0.26579    0.41646   1.00
O2       0.31435    0.27714    0.39752   1.00
C3       0.21739    0.23445    0.41773   1.00
H1       0.19179    0.22281    0.40343   1.00
C2       0.24854    0.25052    0.39561   1.00
C5       0.17594    0.31116    0.52121   1.00
H2       0.16448    0.31251    0.55162   1.00
H2       0.16483    0.28387    0.50734   1.00
C5       0.16047    0.34628    0.49871   1.00
H2       0.17280    0.34553    0.46863   1.00
H2       0.17144    0.37335    0.51302   1.00
C5       0.11556    0.34609    0.49738   1.00
H2       0.10305    0.34656    0.52732   1.00
H2       0.10461    0.31974    0.48189   1.00
C5       0.10067    0.38243    0.47555   1.00
C5       0.19069    0.18075    0.48895   1.00
C5       0.31281    0.31755    0.38930   1.00
H2       0.21587    0.17724    0.50912   1.00
H2       0.19549    0.16184    0.46288   1.00
H2       0.31091    0.33456    0.41700   1.00
H2       0.28697    0.32562    0.37105   1.00
H2       0.33514    0.35024    0.30970   1.00
H2       0.17965    0.13293    0.55753   1.00
H2       0.17212    0.10614    0.51237   1.00
C2       0.24748    0.25091    0.60395   1.00
C3       0.26596    0.21995    0.58403   1.00
O2       0.27459    0.18565    0.60326   1.00
C3       0.23177    0.28198    0.58174   1.00
H1       0.21834    0.30660    0.59615   1.00
C3a      0.26744    0.22017    0.54287   1.00
H1       0.27970    0.19520    0.52798   1.00
C3b      0.23218    0.28151    0.54078   1.00
C4       0.25003    0.25042    0.52100   1.00
O3       0.18546    0.22018    0.47833   1.00
C5       0.31462    0.18435    0.61280   1.00
H2       0.33321    0.18615    0.58609   1.00
C5       0.32189    0.14552    0.63326   1.00
H2       0.32264    0.20877    0.63274   1.00
H2       0.32416    0.12226    0.61068   1.00
H2       0.29546    0.13873    0.65093   1.00
C5       0.35857    0.14597    0.65918   1.00
H2       0.38410    0.15579    0.64176   1.00
C5       0.36709    0.10498    0.67547   1.00
H2       0.35472    0.16565    0.68493   1.00
C5       0.15372    0.16748    0.50983   1.00
H2       0.12995    0.16457    0.48785   1.00
H2       0.14471    0.19092    0.53048   1.00
C5       0.15982    0.12888    0.53200   1.00
C5       0.12052    0.11389    0.54775   1.00
H2       0.40359    0.35783    0.30714   1.00
C5       0.38333    0.41862    0.31088   1.00
H2       0.40578    0.37977    0.35677   1.00
C5       0.05690    0.37765    0.46663   1.00
H2       0.10525    0.40938    0.49449   1.00
H2       0.11748    0.38591    0.44707   1.00
C5       0.40753    0.10474    0.69503   1.00
H2       0.34389    0.09692    0.69789   1.00
H2       0.36666    0.08287    0.65063   1.00
H2       0.10499    0.13841    0.56398   1.00
H2       0.10159    0.10366    0.52239   1.00
C5       0.12774    0.07958    0.57583   1.00
H2       0.35252    0.42203    0.29884   1.00
H2       0.38869    0.44162    0.33429   1.00
H2       0.40535    0.42252    0.28626   1.00
H2       0.04541    0.35038    0.48180   1.00
H2       0.04036    0.40429    0.47771   1.00
H2       0.05253    0.37475    0.43379   1.00
H2       0.41224    0.13347    0.71111   1.00
H2       0.40924    0.07953    0.71664   1.00
H2       0.43105    0.10106    0.67181   1.00
H2       0.13037    0.09106    0.60693   1.00
H2       0.10232    0.05822    0.57402   1.00
H2       0.15590    0.06404    0.56734   1.00
C5       0.35056    0.67279    0.63218   1.00
H2       0.35904    0.70007    0.64745   1.00
H2       0.37427    0.66681    0.61090   1.00
C5       0.34741    0.63928    0.66194   1.00
C5       0.38796    0.62232    0.67123   1.00
H2       0.32849    0.61566    0.65015   1.00
O3       0.21710    0.68729    0.48000   1.00
C4       0.24997    0.75042    0.52100   1.00
C3c      0.28121    0.73480    0.54243   1.00
H1       0.30599    0.72253    0.52725   1.00
C3d      0.21821    0.76677    0.54135   1.00
C3       0.28081    0.73421    0.58354   1.00
O2       0.31435    0.72286    0.60248   1.00
C3       0.21739    0.76555    0.58227   1.00
H1       0.19179    0.77719    0.59657   1.00
C2       0.24854    0.74948    0.60439   1.00
C5       0.17594    0.68884    0.47879   1.00
H2       0.16448    0.68749    0.44838   1.00
H2       0.16483    0.71613    0.49266   1.00
C5       0.16047    0.65372    0.50129   1.00
H2       0.17280    0.65447    0.53137   1.00
H2       0.17144    0.62665    0.48698   1.00
C5       0.11556    0.65391    0.50262   1.00
H2       0.10305    0.65344    0.47268   1.00
H2       0.10461    0.68026    0.51811   1.00
C5       0.10067    0.61757    0.52445   1.00
C5       0.19069    0.81925    0.51105   1.00
C5       0.31281    0.68245    0.61070   1.00
H2       0.21587    0.82276    0.49088   1.00
H2       0.19549    0.83816    0.53712   1.00
H2       0.31091    0.66544    0.58300   1.00
H2       0.28697    0.67438    0.62895   1.00
H2       0.33514    0.64976    0.69030   1.00
H2       0.17965    0.86707    0.44247   1.00
H2       0.17212    0.89386    0.48763   1.00
C2       0.24748    0.74909    0.39605   1.00
C3       0.26596    0.78005    0.41597   1.00
O2       0.27459    0.81435    0.39674   1.00
C3       0.23177    0.71802    0.41826   1.00
H1       0.21834    0.69340    0.40385   1.00
C3a      0.26744    0.77983    0.45713   1.00
H1       0.27970    0.80480    0.47202   1.00
C3b      0.23218    0.71849    0.45922   1.00
C4       0.25003    0.74958    0.47900   1.00
O3       0.18546    0.77982    0.52167   1.00
C5       0.31462    0.81565    0.38720   1.00
H2       0.33321    0.81385    0.41391   1.00
C5       0.32189    0.85448    0.36674   1.00
H2       0.32264    0.79123    0.36726   1.00
H2       0.32416    0.87774    0.38932   1.00
H2       0.29546    0.86127    0.34907   1.00
C5       0.35857    0.85403    0.34082   1.00
H2       0.38410    0.84421    0.35824   1.00
C5       0.36709    0.89502    0.32453   1.00
H2       0.35472    0.83435    0.31507   1.00
C5       0.15372    0.83252    0.49017   1.00
H2       0.12995    0.83543    0.51215   1.00
H2       0.14471    0.80908    0.46952   1.00
C5       0.15982    0.87112    0.46800   1.00
C5       0.12052    0.88611    0.45225   1.00
H2       0.40359    0.64217    0.69286   1.00
C5       0.38333    0.58138    0.68912   1.00
H2       0.40578    0.62023    0.64323   1.00
C5       0.05690    0.62235    0.53337   1.00
H2       0.10525    0.59062    0.50551   1.00
H2       0.11748    0.61409    0.55293   1.00
C5       0.40753    0.89526    0.30497   1.00
H2       0.34389    0.90308    0.30211   1.00
H2       0.36666    0.91713    0.34937   1.00
H2       0.10499    0.86159    0.43602   1.00
H2       0.10159    0.89634    0.47761   1.00
C5       0.12774    0.92042    0.42417   1.00
H2       0.35252    0.57797    0.70116   1.00
H2       0.38869    0.55838    0.66571   1.00
H2       0.40535    0.57748    0.71374   1.00
H2       0.04541    0.64962    0.51820   1.00
H2       0.04036    0.59571    0.52229   1.00
H2       0.05253    0.62525    0.56621   1.00
H2       0.41224    0.86653    0.28889   1.00
H2       0.40924    0.92047    0.28336   1.00
H2       0.43105    0.89894    0.32819   1.00
H2       0.13037    0.90894    0.39307   1.00
H2       0.10232    0.94178    0.42598   1.00
H2       0.15590    0.93596    0.43266   1.00
C5       0.17279    1.13218    0.35056   1.00
H2       0.20007    1.14745    0.35904   1.00
H2       0.16681    1.11090    0.37427   1.00
C5       0.13928    1.16194    0.34741   1.00
C5       0.12232    1.17123    0.38796   1.00
H2       0.11566    1.15015    0.32849   1.00
O3       0.18729    0.98000    0.21710   1.00
C4       0.25042    1.02100    0.24997   1.00
C3c      0.23480    1.04243    0.28121   1.00
H1       0.22253    1.02725    0.30599   1.00
C3d      0.26677    1.04135    0.21821   1.00
C3       0.23421    1.08354    0.28081   1.00
O2       0.22286    1.10248    0.31435   1.00
C3       0.26555    1.08227    0.21739   1.00
H1       0.27719    1.09657    0.19179   1.00
C2       0.24948    1.10439    0.24854   1.00
C5       0.18884    0.97879    0.17594   1.00
H2       0.18749    0.94838    0.16448   1.00
H2       0.21613    0.99266    0.16483   1.00
C5       0.15372    1.00129    0.16047   1.00
H2       0.15447    1.03137    0.17280   1.00
H2       0.12665    0.98698    0.17144   1.00
C5       0.15391    1.00262    0.11556   1.00
H2       0.15344    0.97268    0.10305   1.00
H2       0.18026    1.01811    0.10461   1.00
C5       0.11757    1.02445    0.10067   1.00
C5       0.31925    1.01105    0.19069   1.00
C5       0.18245    1.11070    0.31281   1.00
H2       0.32276    0.99088    0.21587   1.00
H2       0.33816    1.03712    0.19549   1.00
H2       0.16544    1.08300    0.31091   1.00
H2       0.17438    1.12895    0.28697   1.00
H2       0.14976    1.19030    0.33514   1.00
H2       0.36707    0.94247    0.17965   1.00
H2       0.39386    0.98763    0.17212   1.00
C2       0.24909    0.89605    0.24748   1.00
C3       0.28005    0.91597    0.26596   1.00
O2       0.31435    0.89674    0.27459   1.00
C3       0.21802    0.91826    0.23177   1.00
H1       0.19340    0.90385    0.21834   1.00
C3a      0.27983    0.95713    0.26744   1.00
H1       0.30480    0.97202    0.27970   1.00
C3b      0.21849    0.95922    0.23218   1.00
C4       0.24958    0.97900    0.25003   1.00
O3       0.27982    1.02167    0.18546   1.00
C5       0.31565    0.88720    0.31462   1.00
H2       0.31385    0.91391    0.33321   1.00
C5       0.35448    0.86674    0.32189   1.00
H2       0.29123    0.86726    0.32264   1.00
H2       0.37774    0.88932    0.32416   1.00
H2       0.36127    0.84907    0.29546   1.00
C5       0.35403    0.84082    0.35857   1.00
H2       0.34421    0.85824    0.38410   1.00
C5       0.39502    0.82453    0.36709   1.00
H2       0.33435    0.81507    0.35472   1.00
C5       0.33252    0.99017    0.15372   1.00
H2       0.33543    1.01215    0.12995   1.00
H2       0.30908    0.96952    0.14471   1.00
C5       0.37112    0.96800    0.15982   1.00
C5       0.38611    0.95225    0.12052   1.00
H2       0.14217    1.19286    0.40359   1.00
C5       0.08138    1.18912    0.38333   1.00
H2       0.12023    1.14323    0.40578   1.00
C5       0.12235    1.03337    0.05690   1.00
H2       0.09062    1.00551    0.10525   1.00
H2       0.11409    1.05293    0.11748   1.00
C5       0.39526    0.80497    0.40753   1.00
H2       0.40308    0.80211    0.34389   1.00
H2       0.41713    0.84937    0.36666   1.00
H2       0.36159    0.93602    0.10499   1.00
H2       0.39634    0.97761    0.10159   1.00
C5       0.42042    0.92417    0.12774   1.00
H2       0.07797    1.20116    0.35252   1.00
H2       0.05838    1.16571    0.38869   1.00
H2       0.07748    1.21374    0.40535   1.00
H2       0.14962    1.01820    0.04541   1.00
H2       0.09571    1.02229    0.04036   1.00
H2       0.12525    1.06621    0.05253   1.00
H2       0.36653    0.78889    0.41224   1.00
H2       0.42047    0.78336    0.40924   1.00
H2       0.39894    0.82819    0.43105   1.00
H2       0.40894    0.89307    0.13037   1.00
H2       0.44178    0.92598    0.10232   1.00
H2       0.43596    0.93266    0.15590   1.00
C5       -0.13218   0.85056    0.32721   1.00
H2       -0.14745   0.85904    0.29993   1.00
H2       -0.11090   0.87427    0.33319   1.00
C5       -0.16194   0.84741    0.36072   1.00
C5       -0.17123   0.88796    0.37768   1.00
H2       -0.15015   0.82849    0.38434   1.00
O3       0.02000    0.71710    0.31271   1.00
C4       -0.02100   0.74997    0.24958   1.00
C3c      -0.04243   0.78121    0.26520   1.00
H1       -0.02725   0.80599    0.27747   1.00
C3d      -0.04135   0.71821    0.23323   1.00
C3       -0.08354   0.78081    0.26579   1.00
O2       -0.10248   0.81435    0.27714   1.00
C3       -0.08227   0.71739    0.23445   1.00
H1       -0.09657   0.69179    0.22281   1.00
C2       -0.10439   0.74854    0.25052   1.00
C5       0.02121    0.67594    0.31116   1.00
H2       0.05162    0.66448    0.31251   1.00
H2       0.00734    0.66483    0.28387   1.00
C5       -0.00129   0.66047    0.34628   1.00
H2       -0.03137   0.67280    0.34553   1.00
H2       0.01302    0.67144    0.37335   1.00
C5       -0.00262   0.61556    0.34609   1.00
H2       0.02732    0.60305    0.34656   1.00
H2       -0.01811   0.60461    0.31974   1.00
C5       -0.02445   0.60067    0.38243   1.00
C5       -0.01105   0.69069    0.18075   1.00
C5       -0.11070   0.81281    0.31755   1.00
H2       0.00912    0.71587    0.17724   1.00
H2       -0.03712   0.69549    0.16184   1.00
H2       -0.08300   0.81091    0.33456   1.00
H2       -0.12895   0.78697    0.32562   1.00
H2       -0.19030   0.83514    0.35024   1.00
H2       0.05753    0.67965    0.13293   1.00
H2       0.01237    0.67212    0.10614   1.00
C2       0.10395    0.74748    0.25091   1.00
C3       0.08403    0.76596    0.21995   1.00
O2       0.10326    0.77459    0.18565   1.00
C3       0.08174    0.73177    0.28198   1.00
H1       0.09615    0.71834    0.30660   1.00
C3a      0.04287    0.76744    0.22017   1.00
H1       0.02798    0.77970    0.19520   1.00
C3b      0.04078    0.73218    0.28151   1.00
C4       0.02100    0.75003    0.25042   1.00
O3       -0.02167   0.68546    0.22018   1.00
C5       0.11280    0.81462    0.18435   1.00
H2       0.08609    0.83321    0.18615   1.00
C5       0.13326    0.82189    0.14552   1.00
H2       0.13274    0.82264    0.20877   1.00
H2       0.11068    0.82416    0.12226   1.00
H2       0.15093    0.79546    0.13873   1.00
C5       0.15918    0.85857    0.14597   1.00
H2       0.14176    0.88410    0.15579   1.00
C5       0.17547    0.86709    0.10498   1.00
H2       0.18493    0.85472    0.16565   1.00
C5       0.00983    0.65372    0.16748   1.00
H2       -0.01215   0.62995    0.16457   1.00
H2       0.03048    0.64471    0.19092   1.00
C5       0.03200    0.65982    0.12888   1.00
C5       0.04775    0.62052    0.11389   1.00
H2       -0.19286   0.90359    0.35783   1.00
C5       -0.18912   0.88333    0.41862   1.00
H2       -0.14323   0.90578    0.37977   1.00
C5       -0.03337   0.55690    0.37765   1.00
H2       -0.00551   0.60525    0.40938   1.00
H2       -0.05293   0.61748    0.38591   1.00
C5       0.19503    0.90753    0.10474   1.00
H2       0.19789    0.84389    0.09692   1.00
H2       0.15063    0.86666    0.08287   1.00
H2       0.06398    0.60499    0.13841   1.00
H2       0.02239    0.60159    0.10366   1.00
C5       0.07583    0.62774    0.07958   1.00
H2       -0.20116   0.85252    0.42203   1.00
H2       -0.16571   0.88869    0.44162   1.00
H2       -0.21374   0.90535    0.42252   1.00
H2       -0.01820   0.54541    0.35038   1.00
H2       -0.02229   0.54036    0.40429   1.00
H2       -0.06621   0.55253    0.37475   1.00
H2       0.21111    0.91224    0.13347   1.00
H2       0.21664    0.90924    0.07953   1.00
H2       0.17181    0.93105    0.10106   1.00
H2       0.10693    0.63037    0.09106   1.00
H2       0.07402    0.60232    0.05822   1.00
H2       0.06734    0.65590    0.06404   1.00
C5       0.63218    0.85056    0.17279   1.00
H2       0.64745    0.85904    0.20007   1.00
H2       0.61090    0.87427    0.16681   1.00
C5       0.66194    0.84741    0.13928   1.00
C5       0.67123    0.88796    0.12232   1.00
H2       0.65015    0.82849    0.11566   1.00
O3       0.48000    0.71710    0.18729   1.00
C4       0.52100    0.74997    0.25042   1.00
C3c      0.54243    0.78121    0.23480   1.00
H1       0.52725    0.80599    0.22253   1.00
C3d      0.54135    0.71821    0.26677   1.00
C3       0.58354    0.78081    0.23421   1.00
O2       0.60248    0.81435    0.22286   1.00
C3       0.58227    0.71739    0.26555   1.00
H1       0.59657    0.69179    0.27719   1.00
C2       0.60439    0.74854    0.24948   1.00
C5       0.47879    0.67594    0.18884   1.00
H2       0.44838    0.66448    0.18749   1.00
H2       0.49266    0.66483    0.21613   1.00
C5       0.50129    0.66047    0.15372   1.00
H2       0.53137    0.67280    0.15447   1.00
H2       0.48698    0.67144    0.12665   1.00
C5       0.50262    0.61556    0.15391   1.00
H2       0.47268    0.60305    0.15344   1.00
H2       0.51811    0.60461    0.18026   1.00
C5       0.52445    0.60067    0.11757   1.00
C5       0.51105    0.69069    0.31925   1.00
C5       0.61070    0.81281    0.18245   1.00
H2       0.49088    0.71587    0.32276   1.00
H2       0.53712    0.69549    0.33816   1.00
H2       0.58300    0.81091    0.16544   1.00
H2       0.62895    0.78697    0.17438   1.00
H2       0.69030    0.83514    0.14976   1.00
H2       0.44247    0.67965    0.36707   1.00
H2       0.48763    0.67212    0.39386   1.00
C2       0.39605    0.74748    0.24909   1.00
C3       0.41597    0.76596    0.28005   1.00
O2       0.39674    0.77459    0.31435   1.00
C3       0.41826    0.73177    0.21802   1.00
H1       0.40385    0.71834    0.19340   1.00
C3a      0.45713    0.76744    0.27983   1.00
H1       0.47202    0.77970    0.30480   1.00
C3b      0.45922    0.73218    0.21849   1.00
C4       0.47900    0.75003    0.24958   1.00
O3       0.52167    0.68546    0.27982   1.00
C5       0.38720    0.81462    0.31565   1.00
H2       0.41391    0.83321    0.31385   1.00
C5       0.36674    0.82189    0.35448   1.00
H2       0.36726    0.82264    0.29123   1.00
H2       0.38932    0.82416    0.37774   1.00
H2       0.34907    0.79546    0.36127   1.00
C5       0.34082    0.85857    0.35403   1.00
H2       0.35824    0.88410    0.34421   1.00
C5       0.32453    0.86709    0.39502   1.00
H2       0.31507    0.85472    0.33435   1.00
C5       0.49017    0.65372    0.33252   1.00
H2       0.51215    0.62995    0.33543   1.00
H2       0.46952    0.64471    0.30908   1.00
C5       0.46800    0.65982    0.37112   1.00
C5       0.45225    0.62052    0.38611   1.00
H2       0.69286    0.90359    0.14217   1.00
C5       0.68912    0.88333    0.08138   1.00
H2       0.64323    0.90578    0.12023   1.00
C5       0.53337    0.55690    0.12235   1.00
H2       0.50551    0.60525    0.09062   1.00
H2       0.55293    0.61748    0.11409   1.00
C5       0.30497    0.90753    0.39526   1.00
H2       0.30211    0.84389    0.40308   1.00
H2       0.34937    0.86666    0.41713   1.00
H2       0.43602    0.60499    0.36159   1.00
H2       0.47761    0.60159    0.39634   1.00
C5       0.42417    0.62774    0.42042   1.00
H2       0.70116    0.85252    0.07797   1.00
H2       0.66571    0.88869    0.05838   1.00
H2       0.71374    0.90535    0.07748   1.00
H2       0.51820    0.54541    0.14962   1.00
H2       0.52229    0.54036    0.09571   1.00
H2       0.56621    0.55253    0.12525   1.00
H2       0.28889    0.91224    0.36653   1.00
H2       0.28336    0.90924    0.42047   1.00
H2       0.32819    0.93105    0.39894   1.00
H2       0.39307    0.63037    0.40894   1.00
H2       0.42598    0.60232    0.44178   1.00
H2       0.43266    0.65590    0.43596   1.00
C5       0.32721    0.36782    0.35056   1.00
H2       0.29993    0.35255    0.35904   1.00
H2       0.33319    0.38910    0.37427   1.00
C5       0.36072    0.33806    0.34741   1.00
C5       0.37768    0.32877    0.38796   1.00
H2       0.38434    0.34985    0.32849   1.00
O3       0.31271    0.52000    0.21710   1.00
C4       0.24958    0.47900    0.24997   1.00
C3c      0.26520    0.45757    0.28121   1.00
H1       0.27747    0.47275    0.30599   1.00
C3d      0.23323    0.45865    0.21821   1.00
C3       0.26579    0.41646    0.28081   1.00
O2       0.27714    0.39752    0.31435   1.00
C3       0.23445    0.41773    0.21739   1.00
H1       0.22281    0.40343    0.19179   1.00
C2       0.25052    0.39561    0.24854   1.00
C5       0.31116    0.52121    0.17594   1.00
H2       0.31251    0.55162    0.16448   1.00
H2       0.28387    0.50734    0.16483   1.00
C5       0.34628    0.49871    0.16047   1.00
H2       0.34553    0.46863    0.17280   1.00
H2       0.37335    0.51302    0.17144   1.00
C5       0.34609    0.49738    0.11556   1.00
H2       0.34656    0.52732    0.10305   1.00
H2       0.31974    0.48189    0.10461   1.00
C5       0.38243    0.47555    0.10067   1.00
C5       0.18075    0.48895    0.19069   1.00
C5       0.31755    0.38930    0.31281   1.00
H2       0.17724    0.50912    0.21587   1.00
H2       0.16184    0.46288    0.19549   1.00
H2       0.33456    0.41700    0.31091   1.00
H2       0.32562    0.37105    0.28697   1.00
H2       0.35024    0.30970    0.33514   1.00
H2       0.13293    0.55753    0.17965   1.00
H2       0.10614    0.51237    0.17212   1.00
C2       0.25091    0.60395    0.24748   1.00
C3       0.21995    0.58403    0.26596   1.00
O2       0.18565    0.60326    0.27459   1.00
C3       0.28198    0.58174    0.23177   1.00
H1       0.30660    0.59615    0.21834   1.00
C3a      0.22017    0.54287    0.26744   1.00
H1       0.19520    0.52798    0.27970   1.00
C3b      0.28151    0.54078    0.23218   1.00
C4       0.25042    0.52100    0.25003   1.00
O3       0.22018    0.47833    0.18546   1.00
C5       0.18435    0.61280    0.31462   1.00
H2       0.18615    0.58609    0.33321   1.00
C5       0.14552    0.63326    0.32189   1.00
H2       0.20877    0.63274    0.32264   1.00
H2       0.12226    0.61068    0.32416   1.00
H2       0.13873    0.65093    0.29546   1.00
C5       0.14597    0.65918    0.35857   1.00
H2       0.15579    0.64176    0.38410   1.00
C5       0.10498    0.67547    0.36709   1.00
H2       0.16565    0.68493    0.35472   1.00
C5       0.16748    0.50983    0.15372   1.00
H2       0.16457    0.48785    0.12995   1.00
H2       0.19092    0.53048    0.14471   1.00
C5       0.12888    0.53200    0.15982   1.00
C5       0.11389    0.54775    0.12052   1.00
H2       0.35783    0.30714    0.40359   1.00
C5       0.41862    0.31088    0.38333   1.00
H2       0.37977    0.35677    0.40578   1.00
C5       0.37765    0.46663    0.05690   1.00
H2       0.40938    0.49449    0.10525   1.00
H2       0.38591    0.44707    0.11748   1.00
C5       0.10474    0.69503    0.40753   1.00
H2       0.09692    0.69789    0.34389   1.00
H2       0.08287    0.65063    0.36666   1.00
H2       0.13841    0.56398    0.10499   1.00
H2       0.10366    0.52239    0.10159   1.00
C5       0.07958    0.57583    0.12774   1.00
H2       0.42203    0.29884    0.35252   1.00
H2       0.44162    0.33429    0.38869   1.00
H2       0.42252    0.28626    0.40535   1.00
H2       0.35038    0.48180    0.04541   1.00
H2       0.40429    0.47771    0.04036   1.00
H2       0.37475    0.43379    0.05253   1.00
H2       0.13347    0.71111    0.41224   1.00
H2       0.07953    0.71664    0.40924   1.00
H2       0.10106    0.67181    0.43105   1.00
H2       0.09106    0.60693    0.13037   1.00
H2       0.05822    0.57402    0.10232   1.00
H2       0.06404    0.56734    0.15590   1.00
C5       0.35056    0.82721    -0.13218   1.00
H2       0.35904    0.79993    -0.14745   1.00
H2       0.37427    0.83319    -0.11090   1.00
C5       0.34741    0.86072    -0.16194   1.00
C5       0.38796    0.87768    -0.17123   1.00
H2       0.32849    0.88434    -0.15015   1.00
O3       0.21710    0.81271    0.02000   1.00
C4       0.24997    0.74958    -0.02100   1.00
C3c      0.28121    0.76520    -0.04243   1.00
H1       0.30599    0.77747    -0.02725   1.00
C3d      0.21821    0.73323    -0.04135   1.00
C3       0.28081    0.76579    -0.08354   1.00
O2       0.31435    0.77714    -0.10248   1.00
C3       0.21739    0.73445    -0.08227   1.00
H1       0.19179    0.72281    -0.09657   1.00
C2       0.24854    0.75052    -0.10439   1.00
C5       0.17594    0.81116    0.02121   1.00
H2       0.16448    0.81251    0.05162   1.00
H2       0.16483    0.78387    0.00734   1.00
C5       0.16047    0.84628    -0.00129   1.00
H2       0.17280    0.84553    -0.03137   1.00
H2       0.17144    0.87335    0.01302   1.00
C5       0.11556    0.84609    -0.00262   1.00
H2       0.10305    0.84656    0.02732   1.00
H2       0.10461    0.81974    -0.01811   1.00
C5       0.10067    0.88243    -0.02445   1.00
C5       0.19069    0.68075    -0.01105   1.00
C5       0.31281    0.81755    -0.11070   1.00
H2       0.21587    0.67724    0.00912   1.00
H2       0.19549    0.66184    -0.03712   1.00
H2       0.31091    0.83456    -0.08300   1.00
H2       0.28697    0.82562    -0.12895   1.00
H2       0.33514    0.85024    -0.19030   1.00
H2       0.17965    0.63293    0.05753   1.00
H2       0.17212    0.60614    0.01237   1.00
C2       0.24748    0.75091    0.10395   1.00
C3       0.26596    0.71995    0.08403   1.00
O2       0.27459    0.68565    0.10326   1.00
C3       0.23177    0.78198    0.08174   1.00
H1       0.21834    0.80660    0.09615   1.00
C3a      0.26744    0.72017    0.04287   1.00
H1       0.27970    0.69520    0.02798   1.00
C3b      0.23218    0.78151    0.04078   1.00
C4       0.25003    0.75042    0.02100   1.00
O3       0.18546    0.72018    -0.02167   1.00
C5       0.31462    0.68435    0.11280   1.00
H2       0.33321    0.68615    0.08609   1.00
C5       0.32189    0.64552    0.13326   1.00
H2       0.32264    0.70877    0.13274   1.00
H2       0.32416    0.62226    0.11068   1.00
H2       0.29546    0.63873    0.15093   1.00
C5       0.35857    0.64597    0.15918   1.00
H2       0.38410    0.65579    0.14176   1.00
C5       0.36709    0.60498    0.17547   1.00
H2       0.35472    0.66565    0.18493   1.00
C5       0.15372    0.66748    0.00983   1.00
H2       0.12995    0.66457    -0.01215   1.00
H2       0.14471    0.69092    0.03048   1.00
C5       0.15982    0.62888    0.03200   1.00
C5       0.12052    0.61389    0.04775   1.00
H2       0.40359    0.85783    -0.19286   1.00
C5       0.38333    0.91862    -0.18912   1.00
H2       0.40578    0.87977    -0.14323   1.00
C5       0.05690    0.87765    -0.03337   1.00
H2       0.10525    0.90938    -0.00551   1.00
H2       0.11748    0.88591    -0.05293   1.00
C5       0.40753    0.60474    0.19503   1.00
H2       0.34389    0.59692    0.19789   1.00
H2       0.36666    0.58287    0.15063   1.00
H2       0.10499    0.63841    0.06398   1.00
H2       0.10159    0.60366    0.02239   1.00
C5       0.12774    0.57958    0.07583   1.00
H2       0.35252    0.92203    -0.20116   1.00
H2       0.38869    0.94162    -0.16571   1.00
H2       0.40535    0.92252    -0.21374   1.00
H2       0.04541    0.85038    -0.01820   1.00
H2       0.04036    0.90429    -0.02229   1.00
H2       0.05253    0.87475    -0.06621   1.00
H2       0.41224    0.63347    0.21111   1.00
H2       0.40924    0.57953    0.21664   1.00
H2       0.43105    0.60106    0.17181   1.00
H2       0.13037    0.59106    0.10693   1.00
H2       0.10232    0.55822    0.07402   1.00
H2       0.15590    0.56404    0.06734   1.00
C5       0.85056    0.17279    0.63218   1.00
H2       0.85904    0.20007    0.64745   1.00
H2       0.87427    0.16681    0.61090   1.00
C5       0.84741    0.13928    0.66194   1.00
C5       0.88796    0.12232    0.67123   1.00
H2       0.82849    0.11566    0.65015   1.00
O3       0.71710    0.18729    0.48000   1.00
C4       0.74997    0.25042    0.52100   1.00
C3c      0.78121    0.23480    0.54243   1.00
H1       0.80599    0.22253    0.52725   1.00
C3d      0.71821    0.26677    0.54135   1.00
C3       0.78081    0.23421    0.58354   1.00
O2       0.81435    0.22286    0.60248   1.00
C3       0.71739    0.26555    0.58227   1.00
H1       0.69179    0.27719    0.59657   1.00
C2       0.74854    0.24948    0.60439   1.00
C5       0.67594    0.18884    0.47879   1.00
H2       0.66448    0.18749    0.44838   1.00
H2       0.66483    0.21613    0.49266   1.00
C5       0.66047    0.15372    0.50129   1.00
H2       0.67280    0.15447    0.53137   1.00
H2       0.67144    0.12665    0.48698   1.00
C5       0.61556    0.15391    0.50262   1.00
H2       0.60305    0.15344    0.47268   1.00
H2       0.60461    0.18026    0.51811   1.00
C5       0.60067    0.11757    0.52445   1.00
C5       0.69069    0.31925    0.51105   1.00
C5       0.81281    0.18245    0.61070   1.00
H2       0.71587    0.32276    0.49088   1.00
H2       0.69549    0.33816    0.53712   1.00
H2       0.81091    0.16544    0.58300   1.00
H2       0.78697    0.17438    0.62895   1.00
H2       0.83514    0.14976    0.69030   1.00
H2       0.67965    0.36707    0.44247   1.00
H2       0.67212    0.39386    0.48763   1.00
C2       0.74748    0.24909    0.39605   1.00
C3       0.76596    0.28005    0.41597   1.00
O2       0.77459    0.31435    0.39674   1.00
C3       0.73177    0.21802    0.41826   1.00
H1       0.71834    0.19340    0.40385   1.00
C3a      0.76744    0.27983    0.45713   1.00
H1       0.77970    0.30480    0.47202   1.00
C3b      0.73218    0.21849    0.45922   1.00
C4       0.75003    0.24958    0.47900   1.00
O3       0.68546    0.27982    0.52167   1.00
C5       0.81462    0.31565    0.38720   1.00
H2       0.83321    0.31385    0.41391   1.00
C5       0.82189    0.35448    0.36674   1.00
H2       0.82264    0.29123    0.36726   1.00
H2       0.82416    0.37774    0.38932   1.00
H2       0.79546    0.36127    0.34907   1.00
C5       0.85857    0.35403    0.34082   1.00
H2       0.88410    0.34421    0.35824   1.00
C5       0.86709    0.39502    0.32453   1.00
H2       0.85472    0.33435    0.31507   1.00
C5       0.65372    0.33252    0.49017   1.00
H2       0.62995    0.33543    0.51215   1.00
H2       0.64471    0.30908    0.46952   1.00
C5       0.65982    0.37112    0.46800   1.00
C5       0.62052    0.38611    0.45225   1.00
H2       0.90359    0.14217    0.69286   1.00
C5       0.88333    0.08138    0.68912   1.00
H2       0.90578    0.12023    0.64323   1.00
C5       0.55690    0.12235    0.53337   1.00
H2       0.60525    0.09062    0.50551   1.00
H2       0.61748    0.11409    0.55293   1.00
C5       0.90753    0.39526    0.30497   1.00
H2       0.84389    0.40308    0.30211   1.00
H2       0.86666    0.41713    0.34937   1.00
H2       0.60499    0.36159    0.43602   1.00
H2       0.60159    0.39634    0.47761   1.00
C5       0.62774    0.42042    0.42417   1.00
H2       0.85252    0.07797    0.70116   1.00
H2       0.88869    0.05838    0.66571   1.00
H2       0.90535    0.07748    0.71374   1.00
H2       0.54541    0.14962    0.51820   1.00
H2       0.54036    0.09571    0.52229   1.00
H2       0.55253    0.12525    0.56621   1.00
H2       0.91224    0.36653    0.28889   1.00
H2       0.90924    0.42047    0.28336   1.00
H2       0.93105    0.39894    0.32819   1.00
H2       0.63037    0.40894    0.39307   1.00
H2       0.60232    0.44178    0.42598   1.00
H2       0.65590    0.43596    0.43266   1.00
C5       0.67279    0.63218    0.35056   1.00
H2       0.70007    0.64745    0.35904   1.00
H2       0.66681    0.61090    0.37427   1.00
C5       0.63928    0.66194    0.34741   1.00
C5       0.62232    0.67123    0.38796   1.00
H2       0.61566    0.65015    0.32849   1.00
O3       0.68729    0.48000    0.21710   1.00
C4       0.75042    0.52100    0.24997   1.00
C3c      0.73480    0.54243    0.28121   1.00
H1       0.72253    0.52725    0.30599   1.00
C3d      0.76677    0.54135    0.21821   1.00
C3       0.73421    0.58354    0.28081   1.00
O2       0.72286    0.60248    0.31435   1.00
C3       0.76555    0.58227    0.21739   1.00
H1       0.77719    0.59657    0.19179   1.00
C2       0.74948    0.60439    0.24854   1.00
C5       0.68884    0.47879    0.17594   1.00
H2       0.68749    0.44838    0.16448   1.00
H2       0.71613    0.49266    0.16483   1.00
C5       0.65372    0.50129    0.16047   1.00
H2       0.65447    0.53137    0.17280   1.00
H2       0.62665    0.48698    0.17144   1.00
C5       0.65391    0.50262    0.11556   1.00
H2       0.65344    0.47268    0.10305   1.00
H2       0.68026    0.51811    0.10461   1.00
C5       0.61757    0.52445    0.10067   1.00
C5       0.81925    0.51105    0.19069   1.00
C5       0.68245    0.61070    0.31281   1.00
H2       0.82276    0.49088    0.21587   1.00
H2       0.83816    0.53712    0.19549   1.00
H2       0.66544    0.58300    0.31091   1.00
H2       0.67438    0.62895    0.28697   1.00
H2       0.64976    0.69030    0.33514   1.00
H2       0.86707    0.44247    0.17965   1.00
H2       0.89386    0.48763    0.17212   1.00
C2       0.74909    0.39605    0.24748   1.00
C3       0.78005    0.41597    0.26596   1.00
O2       0.81435    0.39674    0.27459   1.00
C3       0.71802    0.41826    0.23177   1.00
H1       0.69340    0.40385    0.21834   1.00
C3a      0.77983    0.45713    0.26744   1.00
H1       0.80480    0.47202    0.27970   1.00
C3b      0.71849    0.45922    0.23218   1.00
C4       0.74958    0.47900    0.25003   1.00
O3       0.77982    0.52167    0.18546   1.00
C5       0.81565    0.38720    0.31462   1.00
H2       0.81385    0.41391    0.33321   1.00
C5       0.85448    0.36674    0.32189   1.00
H2       0.79123    0.36726    0.32264   1.00
H2       0.87774    0.38932    0.32416   1.00
H2       0.86127    0.34907    0.29546   1.00
C5       0.85403    0.34082    0.35857   1.00
H2       0.84421    0.35824    0.38410   1.00
C5       0.89502    0.32453    0.36709   1.00
H2       0.83435    0.31507    0.35472   1.00
C5       0.83252    0.49017    0.15372   1.00
H2       0.83543    0.51215    0.12995   1.00
H2       0.80908    0.46952    0.14471   1.00
C5       0.87112    0.46800    0.15982   1.00
C5       0.88611    0.45225    0.12052   1.00
H2       0.64217    0.69286    0.40359   1.00
C5       0.58138    0.68912    0.38333   1.00
H2       0.62023    0.64323    0.40578   1.00
C5       0.62235    0.53337    0.05690   1.00
H2       0.59062    0.50551    0.10525   1.00
H2       0.61409    0.55293    0.11748   1.00
C5       0.89526    0.30497    0.40753   1.00
H2       0.90308    0.30211    0.34389   1.00
H2       0.91713    0.34937    0.36666   1.00
H2       0.86159    0.43602    0.10499   1.00
H2       0.89634    0.47761    0.10159   1.00
C5       0.92042    0.42417    0.12774   1.00
H2       0.57797    0.70116    0.35252   1.00
H2       0.55838    0.66571    0.38869   1.00
H2       0.57748    0.71374    0.40535   1.00
H2       0.64962    0.51820    0.04541   1.00
H2       0.59571    0.52229    0.04036   1.00
H2       0.62525    0.56621    0.05253   1.00
H2       0.86653    0.28889    0.41224   1.00
H2       0.92047    0.28336    0.40924   1.00
H2       0.89894    0.32819    0.43105   1.00
H2       0.90894    0.39307    0.13037   1.00
H2       0.94178    0.42598    0.10232   1.00
H2       0.93596    0.43266    0.15590   1.00
C5       0.36782    0.35056    0.32721   1.00
H2       0.35255    0.35904    0.29993   1.00
H2       0.38910    0.37427    0.33319   1.00
C5       0.33806    0.34741    0.36072   1.00
C5       0.32877    0.38796    0.37768   1.00
H2       0.34985    0.32849    0.38434   1.00
O3       0.52000    0.21710    0.31271   1.00
C4       0.47900    0.24997    0.24958   1.00
C3c      0.45757    0.28121    0.26520   1.00
H1       0.47275    0.30599    0.27747   1.00
C3d      0.45865    0.21821    0.23323   1.00
C3       0.41646    0.28081    0.26579   1.00
O2       0.39752    0.31435    0.27714   1.00
C3       0.41773    0.21739    0.23445   1.00
H1       0.40343    0.19179    0.22281   1.00
C2       0.39561    0.24854    0.25052   1.00
C5       0.52121    0.17594    0.31116   1.00
H2       0.55162    0.16448    0.31251   1.00
H2       0.50734    0.16483    0.28387   1.00
C5       0.49871    0.16047    0.34628   1.00
H2       0.46863    0.17280    0.34553   1.00
H2       0.51302    0.17144    0.37335   1.00
C5       0.49738    0.11556    0.34609   1.00
H2       0.52732    0.10305    0.34656   1.00
H2       0.48189    0.10461    0.31974   1.00
C5       0.47555    0.10067    0.38243   1.00
C5       0.48895    0.19069    0.18075   1.00
C5       0.38930    0.31281    0.31755   1.00
H2       0.50912    0.21587    0.17724   1.00
H2       0.46288    0.19549    0.16184   1.00
H2       0.41700    0.31091    0.33456   1.00
H2       0.37105    0.28697    0.32562   1.00
H2       0.30970    0.33514    0.35024   1.00
H2       0.55753    0.17965    0.13293   1.00
H2       0.51237    0.17212    0.10614   1.00
C2       0.60395    0.24748    0.25091   1.00
C3       0.58403    0.26596    0.21995   1.00
O2       0.60326    0.27459    0.18565   1.00
C3       0.58174    0.23177    0.28198   1.00
H1       0.59615    0.21834    0.30660   1.00
C3a      0.54287    0.26744    0.22017   1.00
H1       0.52798    0.27970    0.19520   1.00
C3b      0.54078    0.23218    0.28151   1.00
C4       0.52100    0.25003    0.25042   1.00
O3       0.47833    0.18546    0.22018   1.00
C5       0.61280    0.31462    0.18435   1.00
H2       0.58609    0.33321    0.18615   1.00
C5       0.63326    0.32189    0.14552   1.00
H2       0.63274    0.32264    0.20877   1.00
H2       0.61068    0.32416    0.12226   1.00
H2       0.65093    0.29546    0.13873   1.00
C5       0.65918    0.35857    0.14597   1.00
H2       0.64176    0.38410    0.15579   1.00
C5       0.67547    0.36709    0.10498   1.00
H2       0.68493    0.35472    0.16565   1.00
C5       0.50983    0.15372    0.16748   1.00
H2       0.48785    0.12995    0.16457   1.00
H2       0.53048    0.14471    0.19092   1.00
C5       0.53200    0.15982    0.12888   1.00
C5       0.54775    0.12052    0.11389   1.00
H2       0.30714    0.40359    0.35783   1.00
C5       0.31088    0.38333    0.41862   1.00
H2       0.35677    0.40578    0.37977   1.00
C5       0.46663    0.05690    0.37765   1.00
H2       0.49449    0.10525    0.40938   1.00
H2       0.44707    0.11748    0.38591   1.00
C5       0.69503    0.40753    0.10474   1.00
H2       0.69789    0.34389    0.09692   1.00
H2       0.65063    0.36666    0.08287   1.00
H2       0.56398    0.10499    0.13841   1.00
H2       0.52239    0.10159    0.10366   1.00
C5       0.57583    0.12774    0.07958   1.00
H2       0.29884    0.35252    0.42203   1.00
H2       0.33429    0.38869    0.44162   1.00
H2       0.28626    0.40535    0.42252   1.00
H2       0.48180    0.04541    0.35038   1.00
H2       0.47771    0.04036    0.40429   1.00
H2       0.43379    0.05253    0.37475   1.00
H2       0.71111    0.41224    0.13347   1.00
H2       0.71664    0.40924    0.07953   1.00
H2       0.67181    0.43105    0.10106   1.00
H2       0.60693    0.13037    0.09106   1.00
H2       0.57402    0.10232    0.05822   1.00
H2       0.56734    0.15590    0.06404   1.00
C5       1.13218    0.35056    0.17279   1.00
H2       1.14745    0.35904    0.20007   1.00
H2       1.11090    0.37427    0.16681   1.00
C5       1.16194    0.34741    0.13928   1.00
C5       1.17123    0.38796    0.12232   1.00
H2       1.15015    0.32849    0.11566   1.00
O3       0.98000    0.21710    0.18729   1.00
C4       1.02100    0.24997    0.25042   1.00
C3c      1.04243    0.28121    0.23480   1.00
H1       1.02725    0.30599    0.22253   1.00
C3d      1.04135    0.21821    0.26677   1.00
C3       1.08354    0.28081    0.23421   1.00
O2       1.10248    0.31435    0.22286   1.00
C3       1.08227    0.21739    0.26555   1.00
H1       1.09657    0.19179    0.27719   1.00
C2       1.10439    0.24854    0.24948   1.00
C5       0.97879    0.17594    0.18884   1.00
H2       0.94838    0.16448    0.18749   1.00
H2       0.99266    0.16483    0.21613   1.00
C5       1.00129    0.16047    0.15372   1.00
H2       1.03137    0.17280    0.15447   1.00
H2       0.98698    0.17144    0.12665   1.00
C5       1.00262    0.11556    0.15391   1.00
H2       0.97268    0.10305    0.15344   1.00
H2       1.01811    0.10461    0.18026   1.00
C5       1.02445    0.10067    0.11757   1.00
C5       1.01105    0.19069    0.31925   1.00
C5       1.11070    0.31281    0.18245   1.00
H2       0.99088    0.21587    0.32276   1.00
H2       1.03712    0.19549    0.33816   1.00
H2       1.08300    0.31091    0.16544   1.00
H2       1.12895    0.28697    0.17438   1.00
H2       1.19030    0.33514    0.14976   1.00
H2       0.94247    0.17965    0.36707   1.00
H2       0.98763    0.17212    0.39386   1.00
C2       0.89605    0.24748    0.24909   1.00
C3       0.91597    0.26596    0.28005   1.00
O2       0.89674    0.27459    0.31435   1.00
C3       0.91826    0.23177    0.21802   1.00
H1       0.90385    0.21834    0.19340   1.00
C3a      0.95713    0.26744    0.27983   1.00
H1       0.97202    0.27970    0.30480   1.00
C3b      0.95922    0.23218    0.21849   1.00
C4       0.97900    0.25003    0.24958   1.00
O3       1.02167    0.18546    0.27982   1.00
C5       0.88720    0.31462    0.31565   1.00
H2       0.91391    0.33321    0.31385   1.00
C5       0.86674    0.32189    0.35448   1.00
H2       0.86726    0.32264    0.29123   1.00
H2       0.88932    0.32416    0.37774   1.00
H2       0.84907    0.29546    0.36127   1.00
C5       0.84082    0.35857    0.35403   1.00
H2       0.85824    0.38410    0.34421   1.00
C5       0.82453    0.36709    0.39502   1.00
H2       0.81507    0.35472    0.33435   1.00
C5       0.99017    0.15372    0.33252   1.00
H2       1.01215    0.12995    0.33543   1.00
H2       0.96952    0.14471    0.30908   1.00
C5       0.96800    0.15982    0.37112   1.00
C5       0.95225    0.12052    0.38611   1.00
H2       1.19286    0.40359    0.14217   1.00
C5       1.18912    0.38333    0.08138   1.00
H2       1.14323    0.40578    0.12023   1.00
C5       1.03337    0.05690    0.12235   1.00
H2       1.00551    0.10525    0.09062   1.00
H2       1.05293    0.11748    0.11409   1.00
C5       0.80497    0.40753    0.39526   1.00
H2       0.80211    0.34389    0.40308   1.00
H2       0.84937    0.36666    0.41713   1.00
H2       0.93602    0.10499    0.36159   1.00
H2       0.97761    0.10159    0.39634   1.00
C5       0.92417    0.12774    0.42042   1.00
H2       1.20116    0.35252    0.07797   1.00
H2       1.16571    0.38869    0.05838   1.00
H2       1.21374    0.40535    0.07748   1.00
H2       1.01820    0.04541    0.14962   1.00
H2       1.02229    0.04036    0.09571   1.00
H2       1.06621    0.05253    0.12525   1.00
H2       0.78889    0.41224    0.36653   1.00
H2       0.78336    0.40924    0.42047   1.00
H2       0.82819    0.43105    0.39894   1.00
H2       0.89307    0.13037    0.40894   1.00
H2       0.92598    0.10232    0.44178   1.00
H2       0.93266    0.15590    0.43596   1.00
C5       0.82721    -0.13218   0.35056   1.00
H2       0.79993    -0.14745   0.35904   1.00
H2       0.83319    -0.11090   0.37427   1.00
C5       0.86072    -0.16194   0.34741   1.00
C5       0.87768    -0.17123   0.38796   1.00
H2       0.88434    -0.15015   0.32849   1.00
O3       0.81271    0.02000    0.21710   1.00
C4       0.74958    -0.02100   0.24997   1.00
C3c      0.76520    -0.04243   0.28121   1.00
H1       0.77747    -0.02725   0.30599   1.00
C3d      0.73323    -0.04135   0.21821   1.00
C3       0.76579    -0.08354   0.28081   1.00
O2       0.77714    -0.10248   0.31435   1.00
C3       0.73445    -0.08227   0.21739   1.00
H1       0.72281    -0.09657   0.19179   1.00
C2       0.75052    -0.10439   0.24854   1.00
C5       0.81116    0.02121    0.17594   1.00
H2       0.81251    0.05162    0.16448   1.00
H2       0.78387    0.00734    0.16483   1.00
C5       0.84628    -0.00129   0.16047   1.00
H2       0.84553    -0.03137   0.17280   1.00
H2       0.87335    0.01302    0.17144   1.00
C5       0.84609    -0.00262   0.11556   1.00
H2       0.84656    0.02732    0.10305   1.00
H2       0.81974    -0.01811   0.10461   1.00
C5       0.88243    -0.02445   0.10067   1.00
C5       0.68075    -0.01105   0.19069   1.00
C5       0.81755    -0.11070   0.31281   1.00
H2       0.67724    0.00912    0.21587   1.00
H2       0.66184    -0.03712   0.19549   1.00
H2       0.83456    -0.08300   0.31091   1.00
H2       0.82562    -0.12895   0.28697   1.00
H2       0.85024    -0.19030   0.33514   1.00
H2       0.63293    0.05753    0.17965   1.00
H2       0.60614    0.01237    0.17212   1.00
C2       0.75091    0.10395    0.24748   1.00
C3       0.71995    0.08403    0.26596   1.00
O2       0.68565    0.10326    0.27459   1.00
C3       0.78198    0.08174    0.23177   1.00
H1       0.80660    0.09615    0.21834   1.00
C3a      0.72017    0.04287    0.26744   1.00
H1       0.69520    0.02798    0.27970   1.00
C3b      0.78151    0.04078    0.23218   1.00
C4       0.75042    0.02100    0.25003   1.00
O3       0.72018    -0.02167   0.18546   1.00
C5       0.68435    0.11280    0.31462   1.00
H2       0.68615    0.08609    0.33321   1.00
C5       0.64552    0.13326    0.32189   1.00
H2       0.70877    0.13274    0.32264   1.00
H2       0.62226    0.11068    0.32416   1.00
H2       0.63873    0.15093    0.29546   1.00
C5       0.64597    0.15918    0.35857   1.00
H2       0.65579    0.14176    0.38410   1.00
C5       0.60498    0.17547    0.36709   1.00
H2       0.66565    0.18493    0.35472   1.00
C5       0.66748    0.00983    0.15372   1.00
H2       0.66457    -0.01215   0.12995   1.00
H2       0.69092    0.03048    0.14471   1.00
C5       0.62888    0.03200    0.15982   1.00
C5       0.61389    0.04775    0.12052   1.00
H2       0.85783    -0.19286   0.40359   1.00
C5       0.91862    -0.18912   0.38333   1.00
H2       0.87977    -0.14323   0.40578   1.00
C5       0.87765    -0.03337   0.05690   1.00
H2       0.90938    -0.00551   0.10525   1.00
H2       0.88591    -0.05293   0.11748   1.00
C5       0.60474    0.19503    0.40753   1.00
H2       0.59692    0.19789    0.34389   1.00
H2       0.58287    0.15063    0.36666   1.00
H2       0.63841    0.06398    0.10499   1.00
H2       0.60366    0.02239    0.10159   1.00
C5       0.57958    0.07583    0.12774   1.00
H2       0.92203    -0.20116   0.35252   1.00
H2       0.94162    -0.16571   0.38869   1.00
H2       0.92252    -0.21374   0.40535   1.00
H2       0.85038    -0.01820   0.04541   1.00
H2       0.90429    -0.02229   0.04036   1.00
H2       0.87475    -0.06621   0.05253   1.00
H2       0.63347    0.21111    0.41224   1.00
H2       0.57953    0.21664    0.40924   1.00
H2       0.60106    0.17181    0.43105   1.00
H2       0.59106    0.10693    0.13037   1.00
H2       0.55822    0.07402    0.10232   1.00
H2       0.56404    0.06734    0.15590   1.00
C5       0.85056    0.32721    -0.13218   1.00
H2       0.85904    0.29993    -0.14745   1.00
H2       0.87427    0.33319    -0.11090   1.00
C5       0.84741    0.36072    -0.16194   1.00
C5       0.88796    0.37768    -0.17123   1.00
H2       0.82849    0.38434    -0.15015   1.00
O3       0.71710    0.31271    0.02000   1.00
C4       0.74997    0.24958    -0.02100   1.00
C3c      0.78121    0.26520    -0.04243   1.00
H1       0.80599    0.27747    -0.02725   1.00
C3d      0.71821    0.23323    -0.04135   1.00
C3       0.78081    0.26579    -0.08354   1.00
O2       0.81435    0.27714    -0.10248   1.00
C3       0.71739    0.23445    -0.08227   1.00
H1       0.69179    0.22281    -0.09657   1.00
C2       0.74854    0.25052    -0.10439   1.00
C5       0.67594    0.31116    0.02121   1.00
H2       0.66448    0.31251    0.05162   1.00
H2       0.66483    0.28387    0.00734   1.00
C5       0.66047    0.34628    -0.00129   1.00
H2       0.67280    0.34553    -0.03137   1.00
H2       0.67144    0.37335    0.01302   1.00
C5       0.61556    0.34609    -0.00262   1.00
H2       0.60305    0.34656    0.02732   1.00
H2       0.60461    0.31974    -0.01811   1.00
C5       0.60067    0.38243    -0.02445   1.00
C5       0.69069    0.18075    -0.01105   1.00
C5       0.81281    0.31755    -0.11070   1.00
H2       0.71587    0.17724    0.00912   1.00
H2       0.69549    0.16184    -0.03712   1.00
H2       0.81091    0.33456    -0.08300   1.00
H2       0.78697    0.32562    -0.12895   1.00
H2       0.83514    0.35024    -0.19030   1.00
H2       0.67965    0.13293    0.05753   1.00
H2       0.67212    0.10614    0.01237   1.00
C2       0.74748    0.25091    0.10395   1.00
C3       0.76596    0.21995    0.08403   1.00
O2       0.77459    0.18565    0.10326   1.00
C3       0.73177    0.28198    0.08174   1.00
H1       0.71834    0.30660    0.09615   1.00
C3a      0.76744    0.22017    0.04287   1.00
H1       0.77970    0.19520    0.02798   1.00
C3b      0.73218    0.28151    0.04078   1.00
C4       0.75003    0.25042    0.02100   1.00
O3       0.68546    0.22018    -0.02167   1.00
C5       0.81462    0.18435    0.11280   1.00
H2       0.83321    0.18615    0.08609   1.00
C5       0.82189    0.14552    0.13326   1.00
H2       0.82264    0.20877    0.13274   1.00
H2       0.82416    0.12226    0.11068   1.00
H2       0.79546    0.13873    0.15093   1.00
C5       0.85857    0.14597    0.15918   1.00
H2       0.88410    0.15579    0.14176   1.00
C5       0.86709    0.10498    0.17547   1.00
H2       0.85472    0.16565    0.18493   1.00
C5       0.65372    0.16748    0.00983   1.00
H2       0.62995    0.16457    -0.01215   1.00
H2       0.64471    0.19092    0.03048   1.00
C5       0.65982    0.12888    0.03200   1.00
C5       0.62052    0.11389    0.04775   1.00
H2       0.90359    0.35783    -0.19286   1.00
C5       0.88333    0.41862    -0.18912   1.00
H2       0.90578    0.37977    -0.14323   1.00
C5       0.55690    0.37765    -0.03337   1.00
H2       0.60525    0.40938    -0.00551   1.00
H2       0.61748    0.38591    -0.05293   1.00
C5       0.90753    0.10474    0.19503   1.00
H2       0.84389    0.09692    0.19789   1.00
H2       0.86666    0.08287    0.15063   1.00
H2       0.60499    0.13841    0.06398   1.00
H2       0.60159    0.10366    0.02239   1.00
C5       0.62774    0.07958    0.07583   1.00
H2       0.85252    0.42203    -0.20116   1.00
H2       0.88869    0.44162    -0.16571   1.00
H2       0.90535    0.42252    -0.21374   1.00
H2       0.54541    0.35038    -0.01820   1.00
H2       0.54036    0.40429    -0.02229   1.00
H2       0.55253    0.37475    -0.06621   1.00
H2       0.91224    0.13347    0.21111   1.00
H2       0.90924    0.07953    0.21664   1.00
H2       0.93105    0.10106    0.17181   1.00
H2       0.63037    0.09106    0.10693   1.00
H2       0.60232    0.05822    0.07402   1.00
H2       0.65590    0.06404    0.06734   1.00
