data_IRMOF10_SG202_Ligand11_label_x.

_audit_creation_method             'generated by an auxiliary program of Tobunporous'

_symmetry_space_group_name_H-M     'P 1'
_symmetry_Int_Tables_number        1
_symmetry_cell_setting             triclinic

_cell_length_a                    34.2800
_cell_length_b                    34.2800
_cell_length_c                    34.2800
_cell_angle_alpha                 90.0000
_cell_angle_beta                  90.0000
_cell_angle_gamma                 90.0000

loop_
_atom_site_label
_atom_site_fract_x
_atom_site_fract_y
_atom_site_fract_z
_atom_site_occupancy
O1       0.75000    0.75000    0.75000   1.00
Zn1      0.71720    0.78280    0.78280   1.00
Zn1      0.78280    0.71720    0.78280   1.00
Zn1      0.78280    0.78280    0.71720   1.00
Zn1      0.71720    0.71720    0.71720   1.00
O2       0.72650    0.77350    0.83820   1.00
O2       0.72650    0.83820    0.77350   1.00
O2       0.66180    0.77350    0.77350   1.00
O2       0.77350    0.72650    0.83820   1.00
O2       0.83820    0.72650    0.77350   1.00
O2       0.77350    0.66180    0.77350   1.00
O2       0.77350    0.83820    0.72650   1.00
O2       0.83820    0.77350    0.72650   1.00
O2       0.77350    0.77350    0.66180   1.00
O2       0.66180    0.72650    0.72650   1.00
O2       0.72650    0.66180    0.72650   1.00
O2       0.72650    0.72650    0.66180   1.00
C1       0.75000    0.75000    0.85520   1.00
C1       0.75000    0.85520    0.75000   1.00
C1       0.64480    0.75000    0.75000   1.00
C1       0.85520    0.75000    0.75000   1.00
C1       0.75000    0.64480    0.75000   1.00
C1       0.75000    0.75000    0.64480   1.00
O1       0.25000    0.25000    0.75000   1.00
Zn1      0.21720    0.28280    0.78280   1.00
Zn1      0.28280    0.21720    0.78280   1.00
Zn1      0.28280    0.28280    0.71720   1.00
Zn1      0.21720    0.21720    0.71720   1.00
O2       0.22650    0.27350    0.83820   1.00
O2       0.22650    0.33820    0.77350   1.00
O2       0.16180    0.27350    0.77350   1.00
O2       0.27350    0.22650    0.83820   1.00
O2       0.33820    0.22650    0.77350   1.00
O2       0.27350    0.16180    0.77350   1.00
O2       0.27350    0.33820    0.72650   1.00
O2       0.33820    0.27350    0.72650   1.00
O2       0.27350    0.27350    0.66180   1.00
O2       0.16180    0.22650    0.72650   1.00
O2       0.22650    0.16180    0.72650   1.00
O2       0.22650    0.22650    0.66180   1.00
C1       0.25000    0.25000    0.85520   1.00
C1       0.25000    0.35520    0.75000   1.00
C1       0.14480    0.25000    0.75000   1.00
C1       0.35520    0.25000    0.75000   1.00
C1       0.25000    0.14480    0.75000   1.00
C1       0.25000    0.25000    0.64480   1.00
O1       0.25000    0.75000    0.25000   1.00
Zn1      0.21720    0.78280    0.28280   1.00
Zn1      0.28280    0.71720    0.28280   1.00
Zn1      0.28280    0.78280    0.21720   1.00
Zn1      0.21720    0.71720    0.21720   1.00
O2       0.22650    0.77350    0.33820   1.00
O2       0.22650    0.83820    0.27350   1.00
O2       0.16180    0.77350    0.27350   1.00
O2       0.27350    0.72650    0.33820   1.00
O2       0.33820    0.72650    0.27350   1.00
O2       0.27350    0.66180    0.27350   1.00
O2       0.27350    0.83820    0.22650   1.00
O2       0.33820    0.77350    0.22650   1.00
O2       0.27350    0.77350    0.16180   1.00
O2       0.16180    0.72650    0.22650   1.00
O2       0.22650    0.66180    0.22650   1.00
O2       0.22650    0.72650    0.16180   1.00
C1       0.25000    0.75000    0.35520   1.00
C1       0.25000    0.85520    0.25000   1.00
C1       0.14480    0.75000    0.25000   1.00
C1       0.35520    0.75000    0.25000   1.00
C1       0.25000    0.64480    0.25000   1.00
C1       0.25000    0.75000    0.14480   1.00
O1       0.75000    0.25000    0.25000   1.00
Zn1      0.71720    0.28280    0.28280   1.00
Zn1      0.78280    0.21720    0.28280   1.00
Zn1      0.78280    0.28280    0.21720   1.00
Zn1      0.71720    0.21720    0.21720   1.00
O2       0.72650    0.27350    0.33820   1.00
O2       0.72650    0.33820    0.27350   1.00
O2       0.66180    0.27350    0.27350   1.00
O2       0.77350    0.22650    0.33820   1.00
O2       0.83820    0.22650    0.27350   1.00
O2       0.77350    0.16180    0.27350   1.00
O2       0.77350    0.33820    0.22650   1.00
O2       0.83820    0.27350    0.22650   1.00
O2       0.77350    0.27350    0.16180   1.00
O2       0.66180    0.22650    0.22650   1.00
O2       0.72650    0.16180    0.22650   1.00
O2       0.72650    0.22650    0.16180   1.00
C1       0.75000    0.25000    0.35520   1.00
C1       0.75000    0.35520    0.25000   1.00
C1       0.64480    0.25000    0.25000   1.00
C1       0.85520    0.25000    0.25000   1.00
C1       0.75000    0.14480    0.25000   1.00
C1       0.75000    0.25000    0.14480   1.00
O1       0.25000    0.25000    0.25000   1.00
Zn1      0.28280    0.21720    0.21720   1.00
Zn1      0.21720    0.28280    0.21720   1.00
Zn1      0.21720    0.21720    0.28280   1.00
Zn1      0.28280    0.28280    0.28280   1.00
O2       0.27350    0.22650    0.16180   1.00
O2       0.27350    0.16180    0.22650   1.00
O2       0.33820    0.22650    0.22650   1.00
O2       0.22650    0.27350    0.16180   1.00
O2       0.16180    0.27350    0.22650   1.00
O2       0.22650    0.33820    0.22650   1.00
O2       0.22650    0.16180    0.27350   1.00
O2       0.16180    0.22650    0.27350   1.00
O2       0.22650    0.22650    0.33820   1.00
O2       0.33820    0.27350    0.27350   1.00
O2       0.27350    0.33820    0.27350   1.00
O2       0.27350    0.27350    0.33820   1.00
C1       0.25000    0.25000    0.14480   1.00
C1       0.25000    0.14480    0.25000   1.00
C1       0.35520    0.25000    0.25000   1.00
C1       0.14480    0.25000    0.25000   1.00
C1       0.25000    0.35520    0.25000   1.00
C1       0.25000    0.25000    0.35520   1.00
O1       0.75000    0.75000    0.25000   1.00
Zn1      0.78280    0.71720    0.21720   1.00
Zn1      0.71720    0.78280    0.21720   1.00
Zn1      0.71720    0.71720    0.28280   1.00
Zn1      0.78280    0.78280    0.28280   1.00
O2       0.77350    0.72650    0.16180   1.00
O2       0.77350    0.66180    0.22650   1.00
O2       0.83820    0.72650    0.22650   1.00
O2       0.72650    0.77350    0.16180   1.00
O2       0.66180    0.77350    0.22650   1.00
O2       0.72650    0.83820    0.22650   1.00
O2       0.72650    0.66180    0.27350   1.00
O2       0.66180    0.72650    0.27350   1.00
O2       0.72650    0.72650    0.33820   1.00
O2       0.83820    0.77350    0.27350   1.00
O2       0.77350    0.83820    0.27350   1.00
O2       0.77350    0.77350    0.33820   1.00
C1       0.75000    0.75000    0.14480   1.00
C1       0.75000    0.64480    0.25000   1.00
C1       0.85520    0.75000    0.25000   1.00
C1       0.64480    0.75000    0.25000   1.00
C1       0.75000    0.85520    0.25000   1.00
C1       0.75000    0.75000    0.35520   1.00
O1       0.75000    0.25000    0.75000   1.00
Zn1      0.78280    0.21720    0.71720   1.00
Zn1      0.71720    0.28280    0.71720   1.00
Zn1      0.71720    0.21720    0.78280   1.00
Zn1      0.78280    0.28280    0.78280   1.00
O2       0.77350    0.22650    0.66180   1.00
O2       0.77350    0.16180    0.72650   1.00
O2       0.83820    0.22650    0.72650   1.00
O2       0.72650    0.27350    0.66180   1.00
O2       0.66180    0.27350    0.72650   1.00
O2       0.72650    0.33820    0.72650   1.00
O2       0.72650    0.16180    0.77350   1.00
O2       0.66180    0.22650    0.77350   1.00
O2       0.72650    0.22650    0.83820   1.00
O2       0.83820    0.27350    0.77350   1.00
O2       0.77350    0.33820    0.77350   1.00
O2       0.77350    0.27350    0.83820   1.00
C1       0.75000    0.25000    0.64480   1.00
C1       0.75000    0.14480    0.75000   1.00
C1       0.85520    0.25000    0.75000   1.00
C1       0.64480    0.25000    0.75000   1.00
C1       0.75000    0.35520    0.75000   1.00
C1       0.75000    0.25000    0.85520   1.00
O1       0.25000    0.75000    0.75000   1.00
Zn1      0.28280    0.71720    0.71720   1.00
Zn1      0.21720    0.78280    0.71720   1.00
Zn1      0.21720    0.71720    0.78280   1.00
Zn1      0.28280    0.78280    0.78280   1.00
O2       0.27350    0.72650    0.66180   1.00
O2       0.27350    0.66180    0.72650   1.00
O2       0.33820    0.72650    0.72650   1.00
O2       0.22650    0.77350    0.66180   1.00
O2       0.16180    0.77350    0.72650   1.00
O2       0.22650    0.83820    0.72650   1.00
O2       0.22650    0.66180    0.77350   1.00
O2       0.16180    0.72650    0.77350   1.00
O2       0.22650    0.72650    0.83820   1.00
O2       0.33820    0.77350    0.77350   1.00
O2       0.27350    0.83820    0.77350   1.00
O2       0.27350    0.77350    0.83820   1.00
C1       0.25000    0.75000    0.64480   1.00
C1       0.25000    0.64480    0.75000   1.00
C1       0.35520    0.75000    0.75000   1.00
C1       0.14480    0.75000    0.75000   1.00
C1       0.25000    0.85520    0.75000   1.00
C1       0.25000    0.75000    0.85520   1.00
C4       0.74998    0.75020    0.97915   1.00
C4       0.75002    0.74980    1.02085   1.00
C3a      0.72432    0.77485    0.95746   1.00
C3       0.76944    0.77908    1.04232   1.00
C3       0.77557    0.72613    0.95768   1.00
C3a      0.73068    0.71994    1.04254   1.00
C2       0.75008    0.75001    0.89488   1.00
C2       0.75008    0.75001    1.10512   1.00
C3       0.72473    0.77431    0.91595   1.00
C3       0.76934    0.77920    1.08363   1.00
C3       0.77550    0.72599    0.91637   1.00
C3       0.73096    0.72056    1.08405   1.00
C5       0.69568    0.80166    0.97772   1.00
H1       0.78445    0.80223    1.02691   1.00
H1       0.70504    0.79295    0.89979   1.00
H1       0.78439    0.80231    1.09901   1.00
H1       0.79544    0.70693    0.90099   1.00
H1       0.71605    0.69791    1.10021   1.00
C5       0.70893    0.68729    1.02228   1.00
H1       0.79547    0.70702    0.97309   1.00
H2       0.68727    0.67426    1.04256   1.00
H2       0.69190    0.69898    0.99731   1.00
H2       0.67162    0.80940    0.95744   1.00
H2       0.68178    0.78639    1.00269   1.00
N1       0.73588    0.65713    1.00857   1.00
C6       0.75765    0.63358    1.03073   1.00
C6       0.74258    0.64714    0.97154   1.00
C6       0.77893    0.60857    1.00759   1.00
C6       0.76934    0.61718    0.96995   1.00
H3       0.75840    0.63462    1.06197   1.00
H3       0.72910    0.66096    0.94700   1.00
H3       0.79915    0.58649    1.01713   1.00
H3       0.78062    0.60320    0.94425   1.00
N1       0.71502    0.83718    0.99143   1.00
C6       0.71927    0.84845    1.02846   1.00
C6       0.73084    0.86509    0.96927   1.00
C6       0.73847    0.88372    1.03005   1.00
C6       0.74584    0.89430    0.99241   1.00
H3       0.70930    0.83190    1.05300   1.00
H3       0.73181    0.86424    0.93803   1.00
H3       0.74626    0.89991    1.05575   1.00
H3       0.76048    0.92042    0.98287   1.00
C4       0.75020    0.97915    0.74998   1.00
C4       0.74980    1.02085    0.75002   1.00
C3a      0.77485    0.95746    0.72432   1.00
C3       0.77908    1.04232    0.76944   1.00
C3       0.72613    0.95768    0.77557   1.00
C3a      0.71994    1.04254    0.73068   1.00
C2       0.75001    0.89488    0.75008   1.00
C2       0.75001    1.10512    0.75008   1.00
C3       0.77431    0.91595    0.72473   1.00
C3       0.77920    1.08363    0.76934   1.00
C3       0.72599    0.91637    0.77550   1.00
C3       0.72056    1.08405    0.73096   1.00
C5       0.80166    0.97772    0.69568   1.00
H1       0.80223    1.02691    0.78445   1.00
H1       0.79295    0.89979    0.70504   1.00
H1       0.80231    1.09901    0.78439   1.00
H1       0.70693    0.90099    0.79544   1.00
H1       0.69791    1.10021    0.71605   1.00
C5       0.68729    1.02228    0.70893   1.00
H1       0.70702    0.97309    0.79547   1.00
H2       0.67426    1.04256    0.68727   1.00
H2       0.69898    0.99731    0.69190   1.00
H2       0.80940    0.95744    0.67162   1.00
H2       0.78639    1.00269    0.68178   1.00
N1       0.65713    1.00857    0.73588   1.00
C6       0.63358    1.03073    0.75765   1.00
C6       0.64714    0.97154    0.74258   1.00
C6       0.60857    1.00759    0.77893   1.00
C6       0.61718    0.96995    0.76934   1.00
H3       0.63462    1.06197    0.75840   1.00
H3       0.66096    0.94700    0.72910   1.00
H3       0.58649    1.01713    0.79915   1.00
H3       0.60320    0.94425    0.78062   1.00
N1       0.83718    0.99143    0.71502   1.00
C6       0.84845    1.02846    0.71927   1.00
C6       0.86509    0.96927    0.73084   1.00
C6       0.88372    1.03005    0.73847   1.00
C6       0.89430    0.99241    0.74584   1.00
H3       0.83190    1.05300    0.70930   1.00
H3       0.86424    0.93803    0.73181   1.00
H3       0.89991    1.05575    0.74626   1.00
H3       0.92042    0.98287    0.76048   1.00
C4       0.52085    0.74998    0.74980   1.00
C4       0.47915    0.75002    0.75020   1.00
C3a      0.54254    0.72432    0.72515   1.00
C3       0.45768    0.76944    0.72092   1.00
C3       0.54232    0.77557    0.77387   1.00
C3a      0.45746    0.73068    0.78006   1.00
C2       0.60512    0.75008    0.74999   1.00
C2       0.39488    0.75008    0.74999   1.00
C3       0.58405    0.72473    0.72569   1.00
C3       0.41637    0.76934    0.72080   1.00
C3       0.58363    0.77550    0.77401   1.00
C3       0.41595    0.73096    0.77944   1.00
C5       0.52228    0.69568    0.69834   1.00
H1       0.47309    0.78445    0.69777   1.00
H1       0.60021    0.70504    0.70705   1.00
H1       0.40099    0.78439    0.69769   1.00
H1       0.59901    0.79544    0.79307   1.00
H1       0.39979    0.71605    0.80209   1.00
C5       0.47772    0.70893    0.81271   1.00
H1       0.52691    0.79547    0.79298   1.00
H2       0.45744    0.68727    0.82574   1.00
H2       0.50269    0.69190    0.80102   1.00
H2       0.54256    0.67162    0.69060   1.00
H2       0.49731    0.68178    0.71361   1.00
N1       0.49143    0.73588    0.84287   1.00
C6       0.46927    0.75765    0.86642   1.00
C6       0.52846    0.74258    0.85286   1.00
C6       0.49241    0.77893    0.89143   1.00
C6       0.53005    0.76934    0.88282   1.00
H3       0.43803    0.75840    0.86538   1.00
H3       0.55300    0.72910    0.83904   1.00
H3       0.48287    0.79915    0.91351   1.00
H3       0.55575    0.78062    0.89680   1.00
N1       0.50857    0.71502    0.66282   1.00
C6       0.47154    0.71927    0.65155   1.00
C6       0.53073    0.73084    0.63491   1.00
C6       0.46995    0.73847    0.61628   1.00
C6       0.50759    0.74584    0.60570   1.00
H3       0.44700    0.70930    0.66810   1.00
H3       0.56197    0.73181    0.63576   1.00
H3       0.44425    0.74626    0.60009   1.00
H3       0.51713    0.76048    0.57958   1.00
C4       0.97915    0.74998    0.75020   1.00
C4       1.02085    0.75002    0.74980   1.00
C3a      0.95746    0.72432    0.77485   1.00
C3       1.04232    0.76944    0.77908   1.00
C3       0.95768    0.77557    0.72613   1.00
C3a      1.04254    0.73068    0.71994   1.00
C2       0.89488    0.75008    0.75001   1.00
C2       1.10512    0.75008    0.75001   1.00
C3       0.91595    0.72473    0.77431   1.00
C3       1.08363    0.76934    0.77920   1.00
C3       0.91637    0.77550    0.72599   1.00
C3       1.08405    0.73096    0.72056   1.00
C5       0.97772    0.69568    0.80166   1.00
H1       1.02691    0.78445    0.80223   1.00
H1       0.89979    0.70504    0.79295   1.00
H1       1.09901    0.78439    0.80231   1.00
H1       0.90099    0.79544    0.70693   1.00
H1       1.10021    0.71605    0.69791   1.00
C5       1.02228    0.70893    0.68729   1.00
H1       0.97309    0.79547    0.70702   1.00
H2       1.04256    0.68727    0.67426   1.00
H2       0.99731    0.69190    0.69898   1.00
H2       0.95744    0.67162    0.80940   1.00
H2       1.00269    0.68178    0.78639   1.00
N1       1.00857    0.73588    0.65713   1.00
C6       1.03073    0.75765    0.63358   1.00
C6       0.97154    0.74258    0.64714   1.00
C6       1.00759    0.77893    0.60857   1.00
C6       0.96995    0.76934    0.61718   1.00
H3       1.06197    0.75840    0.63462   1.00
H3       0.94700    0.72910    0.66096   1.00
H3       1.01713    0.79915    0.58649   1.00
H3       0.94425    0.78062    0.60320   1.00
N1       0.99143    0.71502    0.83718   1.00
C6       1.02846    0.71927    0.84845   1.00
C6       0.96927    0.73084    0.86509   1.00
C6       1.03005    0.73847    0.88372   1.00
C6       0.99241    0.74584    0.89430   1.00
H3       1.05300    0.70930    0.83190   1.00
H3       0.93803    0.73181    0.86424   1.00
H3       1.05575    0.74626    0.89991   1.00
H3       0.98287    0.76048    0.92042   1.00
C4       0.74980    0.52085    0.74998   1.00
C4       0.75020    0.47915    0.75002   1.00
C3a      0.72515    0.54254    0.72432   1.00
C3       0.72092    0.45768    0.76944   1.00
C3       0.77387    0.54232    0.77557   1.00
C3a      0.78006    0.45746    0.73068   1.00
C2       0.74999    0.60512    0.75008   1.00
C2       0.74999    0.39488    0.75008   1.00
C3       0.72569    0.58405    0.72473   1.00
C3       0.72080    0.41637    0.76934   1.00
C3       0.77401    0.58363    0.77550   1.00
C3       0.77944    0.41595    0.73096   1.00
C5       0.69834    0.52228    0.69568   1.00
H1       0.69777    0.47309    0.78445   1.00
H1       0.70705    0.60021    0.70504   1.00
H1       0.69769    0.40099    0.78439   1.00
H1       0.79307    0.59901    0.79544   1.00
H1       0.80209    0.39979    0.71605   1.00
C5       0.81271    0.47772    0.70893   1.00
H1       0.79298    0.52691    0.79547   1.00
H2       0.82574    0.45744    0.68727   1.00
H2       0.80102    0.50269    0.69190   1.00
H2       0.69060    0.54256    0.67162   1.00
H2       0.71361    0.49731    0.68178   1.00
N1       0.84287    0.49143    0.73588   1.00
C6       0.86642    0.46927    0.75765   1.00
C6       0.85286    0.52846    0.74258   1.00
C6       0.89143    0.49241    0.77893   1.00
C6       0.88282    0.53005    0.76934   1.00
H3       0.86538    0.43803    0.75840   1.00
H3       0.83904    0.55300    0.72910   1.00
H3       0.91351    0.48287    0.79915   1.00
H3       0.89680    0.55575    0.78062   1.00
N1       0.66282    0.50857    0.71502   1.00
C6       0.65155    0.47154    0.71927   1.00
C6       0.63491    0.53073    0.73084   1.00
C6       0.61628    0.46995    0.73847   1.00
C6       0.60570    0.50759    0.74584   1.00
H3       0.66810    0.44700    0.70930   1.00
H3       0.63576    0.56197    0.73181   1.00
H3       0.60009    0.44425    0.74626   1.00
H3       0.57958    0.51713    0.76048   1.00
C4       0.74998    0.74980    0.52085   1.00
C4       0.75002    0.75020    0.47915   1.00
C3a      0.72432    0.72515    0.54254   1.00
C3       0.76944    0.72092    0.45768   1.00
C3       0.77557    0.77387    0.54232   1.00
C3a      0.73068    0.78006    0.45746   1.00
C2       0.75008    0.74999    0.60512   1.00
C2       0.75008    0.74999    0.39488   1.00
C3       0.72473    0.72569    0.58405   1.00
C3       0.76934    0.72080    0.41637   1.00
C3       0.77550    0.77401    0.58363   1.00
C3       0.73096    0.77944    0.41595   1.00
C5       0.69568    0.69834    0.52228   1.00
H1       0.78445    0.69777    0.47309   1.00
H1       0.70504    0.70705    0.60021   1.00
H1       0.78439    0.69769    0.40099   1.00
H1       0.79544    0.79307    0.59901   1.00
H1       0.71605    0.80209    0.39979   1.00
C5       0.70893    0.81271    0.47772   1.00
H1       0.79547    0.79298    0.52691   1.00
H2       0.68727    0.82574    0.45744   1.00
H2       0.69190    0.80102    0.50269   1.00
H2       0.67162    0.69060    0.54256   1.00
H2       0.68178    0.71361    0.49731   1.00
N1       0.73588    0.84287    0.49143   1.00
C6       0.75765    0.86642    0.46927   1.00
C6       0.74258    0.85286    0.52846   1.00
C6       0.77893    0.89143    0.49241   1.00
C6       0.76934    0.88282    0.53005   1.00
H3       0.75840    0.86538    0.43803   1.00
H3       0.72910    0.83904    0.55300   1.00
H3       0.79915    0.91351    0.48287   1.00
H3       0.78062    0.89680    0.55575   1.00
N1       0.71502    0.66282    0.50857   1.00
C6       0.71927    0.65155    0.47154   1.00
C6       0.73084    0.63491    0.53073   1.00
C6       0.73847    0.61628    0.46995   1.00
C6       0.74584    0.60570    0.50759   1.00
H3       0.70930    0.66810    0.44700   1.00
H3       0.73181    0.63576    0.56197   1.00
H3       0.74626    0.60009    0.44425   1.00
H3       0.76048    0.57958    0.51713   1.00
C4       0.24998    0.25020    0.97915   1.00
C4       0.25002    0.24980    1.02085   1.00
C3a      0.22432    0.27485    0.95746   1.00
C3       0.26944    0.27908    1.04232   1.00
C3       0.27557    0.22613    0.95768   1.00
C3a      0.23068    0.21994    1.04254   1.00
C2       0.25008    0.25001    0.89488   1.00
C2       0.25008    0.25001    1.10512   1.00
C3       0.22473    0.27431    0.91595   1.00
C3       0.26934    0.27920    1.08363   1.00
C3       0.27550    0.22599    0.91637   1.00
C3       0.23096    0.22056    1.08405   1.00
C5       0.19568    0.30166    0.97772   1.00
H1       0.28445    0.30223    1.02691   1.00
H1       0.20504    0.29295    0.89979   1.00
H1       0.28439    0.30231    1.09901   1.00
H1       0.29544    0.20693    0.90099   1.00
H1       0.21605    0.19791    1.10021   1.00
C5       0.20893    0.18729    1.02228   1.00
H1       0.29547    0.20702    0.97309   1.00
H2       0.18727    0.17426    1.04256   1.00
H2       0.19190    0.19898    0.99731   1.00
H2       0.17162    0.30940    0.95744   1.00
H2       0.18178    0.28639    1.00269   1.00
N1       0.23588    0.15713    1.00857   1.00
C6       0.25765    0.13358    1.03073   1.00
C6       0.24258    0.14714    0.97154   1.00
C6       0.27893    0.10857    1.00759   1.00
C6       0.26934    0.11718    0.96995   1.00
H3       0.25840    0.13462    1.06197   1.00
H3       0.22910    0.16096    0.94700   1.00
H3       0.29915    0.08649    1.01713   1.00
H3       0.28062    0.10320    0.94425   1.00
N1       0.21502    0.33718    0.99143   1.00
C6       0.21927    0.34845    1.02846   1.00
C6       0.23084    0.36509    0.96927   1.00
C6       0.23847    0.38372    1.03005   1.00
C6       0.24584    0.39430    0.99241   1.00
H3       0.20930    0.33190    1.05300   1.00
H3       0.23181    0.36424    0.93803   1.00
H3       0.24626    0.39991    1.05575   1.00
H3       0.26048    0.42042    0.98287   1.00
C4       0.25020    0.47915    0.74998   1.00
C4       0.24980    0.52085    0.75002   1.00
C3a      0.27485    0.45746    0.72432   1.00
C3       0.27908    0.54232    0.76944   1.00
C3       0.22613    0.45768    0.77557   1.00
C3a      0.21994    0.54254    0.73068   1.00
C2       0.25001    0.39488    0.75008   1.00
C2       0.25001    0.60512    0.75008   1.00
C3       0.27431    0.41595    0.72473   1.00
C3       0.27920    0.58363    0.76934   1.00
C3       0.22599    0.41637    0.77550   1.00
C3       0.22056    0.58405    0.73096   1.00
C5       0.30166    0.47772    0.69568   1.00
H1       0.30223    0.52691    0.78445   1.00
H1       0.29295    0.39979    0.70504   1.00
H1       0.30231    0.59901    0.78439   1.00
H1       0.20693    0.40099    0.79544   1.00
H1       0.19791    0.60021    0.71605   1.00
C5       0.18729    0.52228    0.70893   1.00
H1       0.20702    0.47309    0.79547   1.00
H2       0.17426    0.54256    0.68727   1.00
H2       0.19898    0.49731    0.69190   1.00
H2       0.30940    0.45744    0.67162   1.00
H2       0.28639    0.50269    0.68178   1.00
N1       0.15713    0.50857    0.73588   1.00
C6       0.13358    0.53073    0.75765   1.00
C6       0.14714    0.47154    0.74258   1.00
C6       0.10857    0.50759    0.77893   1.00
C6       0.11718    0.46995    0.76934   1.00
H3       0.13462    0.56197    0.75840   1.00
H3       0.16096    0.44700    0.72910   1.00
H3       0.08649    0.51713    0.79915   1.00
H3       0.10320    0.44425    0.78062   1.00
N1       0.33718    0.49143    0.71502   1.00
C6       0.34845    0.52846    0.71927   1.00
C6       0.36509    0.46927    0.73084   1.00
C6       0.38372    0.53005    0.73847   1.00
C6       0.39430    0.49241    0.74584   1.00
H3       0.33190    0.55300    0.70930   1.00
H3       0.36424    0.43803    0.73181   1.00
H3       0.39991    0.55575    0.74626   1.00
H3       0.42042    0.48287    0.76048   1.00
C4       0.02085    0.24998    0.74980   1.00
C4       -0.02085   0.25002    0.75020   1.00
C3a      0.04254    0.22432    0.72515   1.00
C3       -0.04232   0.26944    0.72092   1.00
C3       0.04232    0.27557    0.77387   1.00
C3a      -0.04254   0.23068    0.78006   1.00
C2       0.10512    0.25008    0.74999   1.00
C2       -0.10512   0.25008    0.74999   1.00
C3       0.08405    0.22473    0.72569   1.00
C3       -0.08363   0.26934    0.72080   1.00
C3       0.08363    0.27550    0.77401   1.00
C3       -0.08405   0.23096    0.77944   1.00
C5       0.02228    0.19568    0.69834   1.00
H1       -0.02691   0.28445    0.69777   1.00
H1       0.10021    0.20504    0.70705   1.00
H1       -0.09901   0.28439    0.69769   1.00
H1       0.09901    0.29544    0.79307   1.00
H1       -0.10021   0.21605    0.80209   1.00
C5       -0.02228   0.20893    0.81271   1.00
H1       0.02691    0.29547    0.79298   1.00
H2       -0.04256   0.18727    0.82574   1.00
H2       0.00269    0.19190    0.80102   1.00
H2       0.04256    0.17162    0.69060   1.00
H2       -0.00269   0.18178    0.71361   1.00
N1       -0.00857   0.23588    0.84287   1.00
C6       -0.03073   0.25765    0.86642   1.00
C6       0.02846    0.24258    0.85286   1.00
C6       -0.00759   0.27893    0.89143   1.00
C6       0.03005    0.26934    0.88282   1.00
H3       -0.06197   0.25840    0.86538   1.00
H3       0.05300    0.22910    0.83904   1.00
H3       -0.01713   0.29915    0.91351   1.00
H3       0.05575    0.28062    0.89680   1.00
N1       0.00857    0.21502    0.66282   1.00
C6       -0.02846   0.21927    0.65155   1.00
C6       0.03073    0.23084    0.63491   1.00
C6       -0.03005   0.23847    0.61628   1.00
C6       0.00759    0.24584    0.60570   1.00
H3       -0.05300   0.20930    0.66810   1.00
H3       0.06197    0.23181    0.63576   1.00
H3       -0.05575   0.24626    0.60009   1.00
H3       0.01713    0.26048    0.57958   1.00
C4       0.47915    0.24998    0.75020   1.00
C4       0.52085    0.25002    0.74980   1.00
C3a      0.45746    0.22432    0.77485   1.00
C3       0.54232    0.26944    0.77908   1.00
C3       0.45768    0.27557    0.72613   1.00
C3a      0.54254    0.23068    0.71994   1.00
C2       0.39488    0.25008    0.75001   1.00
C2       0.60512    0.25008    0.75001   1.00
C3       0.41595    0.22473    0.77431   1.00
C3       0.58363    0.26934    0.77920   1.00
C3       0.41637    0.27550    0.72599   1.00
C3       0.58405    0.23096    0.72056   1.00
C5       0.47772    0.19568    0.80166   1.00
H1       0.52691    0.28445    0.80223   1.00
H1       0.39979    0.20504    0.79295   1.00
H1       0.59901    0.28439    0.80231   1.00
H1       0.40099    0.29544    0.70693   1.00
H1       0.60021    0.21605    0.69791   1.00
C5       0.52228    0.20893    0.68729   1.00
H1       0.47309    0.29547    0.70702   1.00
H2       0.54256    0.18727    0.67426   1.00
H2       0.49731    0.19190    0.69898   1.00
H2       0.45744    0.17162    0.80940   1.00
H2       0.50269    0.18178    0.78639   1.00
N1       0.50857    0.23588    0.65713   1.00
C6       0.53073    0.25765    0.63358   1.00
C6       0.47154    0.24258    0.64714   1.00
C6       0.50759    0.27893    0.60857   1.00
C6       0.46995    0.26934    0.61718   1.00
H3       0.56197    0.25840    0.63462   1.00
H3       0.44700    0.22910    0.66096   1.00
H3       0.51713    0.29915    0.58649   1.00
H3       0.44425    0.28062    0.60320   1.00
N1       0.49143    0.21502    0.83718   1.00
C6       0.52846    0.21927    0.84845   1.00
C6       0.46927    0.23084    0.86509   1.00
C6       0.53005    0.23847    0.88372   1.00
C6       0.49241    0.24584    0.89430   1.00
H3       0.55300    0.20930    0.83190   1.00
H3       0.43803    0.23181    0.86424   1.00
H3       0.55575    0.24626    0.89991   1.00
H3       0.48287    0.26048    0.92042   1.00
C4       0.24980    0.02085    0.74998   1.00
C4       0.25020    -0.02085   0.75002   1.00
C3a      0.22515    0.04254    0.72432   1.00
C3       0.22092    -0.04232   0.76944   1.00
C3       0.27387    0.04232    0.77557   1.00
C3a      0.28006    -0.04254   0.73068   1.00
C2       0.24999    0.10512    0.75008   1.00
C2       0.24999    -0.10512   0.75008   1.00
C3       0.22569    0.08405    0.72473   1.00
C3       0.22080    -0.08363   0.76934   1.00
C3       0.27401    0.08363    0.77550   1.00
C3       0.27944    -0.08405   0.73096   1.00
C5       0.19834    0.02228    0.69568   1.00
H1       0.19777    -0.02691   0.78445   1.00
H1       0.20705    0.10021    0.70504   1.00
H1       0.19769    -0.09901   0.78439   1.00
H1       0.29307    0.09901    0.79544   1.00
H1       0.30209    -0.10021   0.71605   1.00
C5       0.31271    -0.02228   0.70893   1.00
H1       0.29298    0.02691    0.79547   1.00
H2       0.32574    -0.04256   0.68727   1.00
H2       0.30102    0.00269    0.69190   1.00
H2       0.19060    0.04256    0.67162   1.00
H2       0.21361    -0.00269   0.68178   1.00
N1       0.34287    -0.00857   0.73588   1.00
C6       0.36642    -0.03073   0.75765   1.00
C6       0.35286    0.02846    0.74258   1.00
C6       0.39143    -0.00759   0.77893   1.00
C6       0.38282    0.03005    0.76934   1.00
H3       0.36538    -0.06197   0.75840   1.00
H3       0.33904    0.05300    0.72910   1.00
H3       0.41351    -0.01713   0.79915   1.00
H3       0.39680    0.05575    0.78062   1.00
N1       0.16282    0.00857    0.71502   1.00
C6       0.15155    -0.02846   0.71927   1.00
C6       0.13491    0.03073    0.73084   1.00
C6       0.11628    -0.03005   0.73847   1.00
C6       0.10570    0.00759    0.74584   1.00
H3       0.16810    -0.05300   0.70930   1.00
H3       0.13576    0.06197    0.73181   1.00
H3       0.10009    -0.05575   0.74626   1.00
H3       0.07958    0.01713    0.76048   1.00
C4       0.24998    0.24980    0.52085   1.00
C4       0.25002    0.25020    0.47915   1.00
C3a      0.22432    0.22515    0.54254   1.00
C3       0.26944    0.22092    0.45768   1.00
C3       0.27557    0.27387    0.54232   1.00
C3a      0.23068    0.28006    0.45746   1.00
C2       0.25008    0.24999    0.60512   1.00
C2       0.25008    0.24999    0.39488   1.00
C3       0.22473    0.22569    0.58405   1.00
C3       0.26934    0.22080    0.41637   1.00
C3       0.27550    0.27401    0.58363   1.00
C3       0.23096    0.27944    0.41595   1.00
C5       0.19568    0.19834    0.52228   1.00
H1       0.28445    0.19777    0.47309   1.00
H1       0.20504    0.20705    0.60021   1.00
H1       0.28439    0.19769    0.40099   1.00
H1       0.29544    0.29307    0.59901   1.00
H1       0.21605    0.30209    0.39979   1.00
C5       0.20893    0.31271    0.47772   1.00
H1       0.29547    0.29298    0.52691   1.00
H2       0.18727    0.32574    0.45744   1.00
H2       0.19190    0.30102    0.50269   1.00
H2       0.17162    0.19060    0.54256   1.00
H2       0.18178    0.21361    0.49731   1.00
N1       0.23588    0.34287    0.49143   1.00
C6       0.25765    0.36642    0.46927   1.00
C6       0.24258    0.35286    0.52846   1.00
C6       0.27893    0.39143    0.49241   1.00
C6       0.26934    0.38282    0.53005   1.00
H3       0.25840    0.36538    0.43803   1.00
H3       0.22910    0.33904    0.55300   1.00
H3       0.29915    0.41351    0.48287   1.00
H3       0.28062    0.39680    0.55575   1.00
N1       0.21502    0.16282    0.50857   1.00
C6       0.21927    0.15155    0.47154   1.00
C6       0.23084    0.13491    0.53073   1.00
C6       0.23847    0.11628    0.46995   1.00
C6       0.24584    0.10570    0.50759   1.00
H3       0.20930    0.16810    0.44700   1.00
H3       0.23181    0.13576    0.56197   1.00
H3       0.24626    0.10009    0.44425   1.00
H3       0.26048    0.07958    0.51713   1.00
C4       0.24998    0.75020    0.47915   1.00
C4       0.25002    0.74980    0.52085   1.00
C3a      0.22432    0.77485    0.45746   1.00
C3       0.26944    0.77908    0.54232   1.00
C3       0.27557    0.72613    0.45768   1.00
C3a      0.23068    0.71994    0.54254   1.00
C2       0.25008    0.75001    0.39488   1.00
C2       0.25008    0.75001    0.60512   1.00
C3       0.22473    0.77431    0.41595   1.00
C3       0.26934    0.77920    0.58363   1.00
C3       0.27550    0.72599    0.41637   1.00
C3       0.23096    0.72056    0.58405   1.00
C5       0.19568    0.80166    0.47772   1.00
H1       0.28445    0.80223    0.52691   1.00
H1       0.20504    0.79295    0.39979   1.00
H1       0.28439    0.80231    0.59901   1.00
H1       0.29544    0.70693    0.40099   1.00
H1       0.21605    0.69791    0.60021   1.00
C5       0.20893    0.68729    0.52228   1.00
H1       0.29547    0.70702    0.47309   1.00
H2       0.18727    0.67426    0.54256   1.00
H2       0.19190    0.69898    0.49731   1.00
H2       0.17162    0.80940    0.45744   1.00
H2       0.18178    0.78639    0.50269   1.00
N1       0.23588    0.65713    0.50857   1.00
C6       0.25765    0.63358    0.53073   1.00
C6       0.24258    0.64714    0.47154   1.00
C6       0.27893    0.60857    0.50759   1.00
C6       0.26934    0.61718    0.46995   1.00
H3       0.25840    0.63462    0.56197   1.00
H3       0.22910    0.66096    0.44700   1.00
H3       0.29915    0.58649    0.51713   1.00
H3       0.28062    0.60320    0.44425   1.00
N1       0.21502    0.83718    0.49143   1.00
C6       0.21927    0.84845    0.52846   1.00
C6       0.23084    0.86509    0.46927   1.00
C6       0.23847    0.88372    0.53005   1.00
C6       0.24584    0.89430    0.49241   1.00
H3       0.20930    0.83190    0.55300   1.00
H3       0.23181    0.86424    0.43803   1.00
H3       0.24626    0.89991    0.55575   1.00
H3       0.26048    0.92042    0.48287   1.00
C4       0.25020    0.97915    0.24998   1.00
C4       0.24980    1.02085    0.25002   1.00
C3a      0.27485    0.95746    0.22432   1.00
C3       0.27908    1.04232    0.26944   1.00
C3       0.22613    0.95768    0.27557   1.00
C3a      0.21994    1.04254    0.23068   1.00
C2       0.25001    0.89488    0.25008   1.00
C2       0.25001    1.10512    0.25008   1.00
C3       0.27431    0.91595    0.22473   1.00
C3       0.27920    1.08363    0.26934   1.00
C3       0.22599    0.91637    0.27550   1.00
C3       0.22056    1.08405    0.23096   1.00
C5       0.30166    0.97772    0.19568   1.00
H1       0.30223    1.02691    0.28445   1.00
H1       0.29295    0.89979    0.20504   1.00
H1       0.30231    1.09901    0.28439   1.00
H1       0.20693    0.90099    0.29544   1.00
H1       0.19791    1.10021    0.21605   1.00
C5       0.18729    1.02228    0.20893   1.00
H1       0.20702    0.97309    0.29547   1.00
H2       0.17426    1.04256    0.18727   1.00
H2       0.19898    0.99731    0.19190   1.00
H2       0.30940    0.95744    0.17162   1.00
H2       0.28639    1.00269    0.18178   1.00
N1       0.15713    1.00857    0.23588   1.00
C6       0.13358    1.03073    0.25765   1.00
C6       0.14714    0.97154    0.24258   1.00
C6       0.10857    1.00759    0.27893   1.00
C6       0.11718    0.96995    0.26934   1.00
H3       0.13462    1.06197    0.25840   1.00
H3       0.16096    0.94700    0.22910   1.00
H3       0.08649    1.01713    0.29915   1.00
H3       0.10320    0.94425    0.28062   1.00
N1       0.33718    0.99143    0.21502   1.00
C6       0.34845    1.02846    0.21927   1.00
C6       0.36509    0.96927    0.23084   1.00
C6       0.38372    1.03005    0.23847   1.00
C6       0.39430    0.99241    0.24584   1.00
H3       0.33190    1.05300    0.20930   1.00
H3       0.36424    0.93803    0.23181   1.00
H3       0.39991    1.05575    0.24626   1.00
H3       0.42042    0.98287    0.26048   1.00
C4       0.02085    0.74998    0.24980   1.00
C4       -0.02085   0.75002    0.25020   1.00
C3a      0.04254    0.72432    0.22515   1.00
C3       -0.04232   0.76944    0.22092   1.00
C3       0.04232    0.77557    0.27387   1.00
C3a      -0.04254   0.73068    0.28006   1.00
C2       0.10512    0.75008    0.24999   1.00
C2       -0.10512   0.75008    0.24999   1.00
C3       0.08405    0.72473    0.22569   1.00
C3       -0.08363   0.76934    0.22080   1.00
C3       0.08363    0.77550    0.27401   1.00
C3       -0.08405   0.73096    0.27944   1.00
C5       0.02228    0.69568    0.19834   1.00
H1       -0.02691   0.78445    0.19777   1.00
H1       0.10021    0.70504    0.20705   1.00
H1       -0.09901   0.78439    0.19769   1.00
H1       0.09901    0.79544    0.29307   1.00
H1       -0.10021   0.71605    0.30209   1.00
C5       -0.02228   0.70893    0.31271   1.00
H1       0.02691    0.79547    0.29298   1.00
H2       -0.04256   0.68727    0.32574   1.00
H2       0.00269    0.69190    0.30102   1.00
H2       0.04256    0.67162    0.19060   1.00
H2       -0.00269   0.68178    0.21361   1.00
N1       -0.00857   0.73588    0.34287   1.00
C6       -0.03073   0.75765    0.36642   1.00
C6       0.02846    0.74258    0.35286   1.00
C6       -0.00759   0.77893    0.39143   1.00
C6       0.03005    0.76934    0.38282   1.00
H3       -0.06197   0.75840    0.36538   1.00
H3       0.05300    0.72910    0.33904   1.00
H3       -0.01713   0.79915    0.41351   1.00
H3       0.05575    0.78062    0.39680   1.00
N1       0.00857    0.71502    0.16282   1.00
C6       -0.02846   0.71927    0.15155   1.00
C6       0.03073    0.73084    0.13491   1.00
C6       -0.03005   0.73847    0.11628   1.00
C6       0.00759    0.74584    0.10570   1.00
H3       -0.05300   0.70930    0.16810   1.00
H3       0.06197    0.73181    0.13576   1.00
H3       -0.05575   0.74626    0.10009   1.00
H3       0.01713    0.76048    0.07958   1.00
C4       0.47915    0.74998    0.25020   1.00
C4       0.52085    0.75002    0.24980   1.00
C3a      0.45746    0.72432    0.27485   1.00
C3       0.54232    0.76944    0.27908   1.00
C3       0.45768    0.77557    0.22613   1.00
C3a      0.54254    0.73068    0.21994   1.00
C2       0.39488    0.75008    0.25001   1.00
C2       0.60512    0.75008    0.25001   1.00
C3       0.41595    0.72473    0.27431   1.00
C3       0.58363    0.76934    0.27920   1.00
C3       0.41637    0.77550    0.22599   1.00
C3       0.58405    0.73096    0.22056   1.00
C5       0.47772    0.69568    0.30166   1.00
H1       0.52691    0.78445    0.30223   1.00
H1       0.39979    0.70504    0.29295   1.00
H1       0.59901    0.78439    0.30231   1.00
H1       0.40099    0.79544    0.20693   1.00
H1       0.60021    0.71605    0.19791   1.00
C5       0.52228    0.70893    0.18729   1.00
H1       0.47309    0.79547    0.20702   1.00
H2       0.54256    0.68727    0.17426   1.00
H2       0.49731    0.69190    0.19898   1.00
H2       0.45744    0.67162    0.30940   1.00
H2       0.50269    0.68178    0.28639   1.00
N1       0.50857    0.73588    0.15713   1.00
C6       0.53073    0.75765    0.13358   1.00
C6       0.47154    0.74258    0.14714   1.00
C6       0.50759    0.77893    0.10857   1.00
C6       0.46995    0.76934    0.11718   1.00
H3       0.56197    0.75840    0.13462   1.00
H3       0.44700    0.72910    0.16096   1.00
H3       0.51713    0.79915    0.08649   1.00
H3       0.44425    0.78062    0.10320   1.00
N1       0.49143    0.71502    0.33718   1.00
C6       0.52846    0.71927    0.34845   1.00
C6       0.46927    0.73084    0.36509   1.00
C6       0.53005    0.73847    0.38372   1.00
C6       0.49241    0.74584    0.39430   1.00
H3       0.55300    0.70930    0.33190   1.00
H3       0.43803    0.73181    0.36424   1.00
H3       0.55575    0.74626    0.39991   1.00
H3       0.48287    0.76048    0.42042   1.00
C4       0.24980    0.52085    0.24998   1.00
C4       0.25020    0.47915    0.25002   1.00
C3a      0.22515    0.54254    0.22432   1.00
C3       0.22092    0.45768    0.26944   1.00
C3       0.27387    0.54232    0.27557   1.00
C3a      0.28006    0.45746    0.23068   1.00
C2       0.24999    0.60512    0.25008   1.00
C2       0.24999    0.39488    0.25008   1.00
C3       0.22569    0.58405    0.22473   1.00
C3       0.22080    0.41637    0.26934   1.00
C3       0.27401    0.58363    0.27550   1.00
C3       0.27944    0.41595    0.23096   1.00
C5       0.19834    0.52228    0.19568   1.00
H1       0.19777    0.47309    0.28445   1.00
H1       0.20705    0.60021    0.20504   1.00
H1       0.19769    0.40099    0.28439   1.00
H1       0.29307    0.59901    0.29544   1.00
H1       0.30209    0.39979    0.21605   1.00
C5       0.31271    0.47772    0.20893   1.00
H1       0.29298    0.52691    0.29547   1.00
H2       0.32574    0.45744    0.18727   1.00
H2       0.30102    0.50269    0.19190   1.00
H2       0.19060    0.54256    0.17162   1.00
H2       0.21361    0.49731    0.18178   1.00
N1       0.34287    0.49143    0.23588   1.00
C6       0.36642    0.46927    0.25765   1.00
C6       0.35286    0.52846    0.24258   1.00
C6       0.39143    0.49241    0.27893   1.00
C6       0.38282    0.53005    0.26934   1.00
H3       0.36538    0.43803    0.25840   1.00
H3       0.33904    0.55300    0.22910   1.00
H3       0.41351    0.48287    0.29915   1.00
H3       0.39680    0.55575    0.28062   1.00
N1       0.16282    0.50857    0.21502   1.00
C6       0.15155    0.47154    0.21927   1.00
C6       0.13491    0.53073    0.23084   1.00
C6       0.11628    0.46995    0.23847   1.00
C6       0.10570    0.50759    0.24584   1.00
H3       0.16810    0.44700    0.20930   1.00
H3       0.13576    0.56197    0.23181   1.00
H3       0.10009    0.44425    0.24626   1.00
H3       0.07958    0.51713    0.26048   1.00
C4       0.24998    0.74980    0.02085   1.00
C4       0.25002    0.75020    -0.02085   1.00
C3a      0.22432    0.72515    0.04254   1.00
C3       0.26944    0.72092    -0.04232   1.00
C3       0.27557    0.77387    0.04232   1.00
C3a      0.23068    0.78006    -0.04254   1.00
C2       0.25008    0.74999    0.10512   1.00
C2       0.25008    0.74999    -0.10512   1.00
C3       0.22473    0.72569    0.08405   1.00
C3       0.26934    0.72080    -0.08363   1.00
C3       0.27550    0.77401    0.08363   1.00
C3       0.23096    0.77944    -0.08405   1.00
C5       0.19568    0.69834    0.02228   1.00
H1       0.28445    0.69777    -0.02691   1.00
H1       0.20504    0.70705    0.10021   1.00
H1       0.28439    0.69769    -0.09901   1.00
H1       0.29544    0.79307    0.09901   1.00
H1       0.21605    0.80209    -0.10021   1.00
C5       0.20893    0.81271    -0.02228   1.00
H1       0.29547    0.79298    0.02691   1.00
H2       0.18727    0.82574    -0.04256   1.00
H2       0.19190    0.80102    0.00269   1.00
H2       0.17162    0.69060    0.04256   1.00
H2       0.18178    0.71361    -0.00269   1.00
N1       0.23588    0.84287    -0.00857   1.00
C6       0.25765    0.86642    -0.03073   1.00
C6       0.24258    0.85286    0.02846   1.00
C6       0.27893    0.89143    -0.00759   1.00
C6       0.26934    0.88282    0.03005   1.00
H3       0.25840    0.86538    -0.06197   1.00
H3       0.22910    0.83904    0.05300   1.00
H3       0.29915    0.91351    -0.01713   1.00
H3       0.28062    0.89680    0.05575   1.00
N1       0.21502    0.66282    0.00857   1.00
C6       0.21927    0.65155    -0.02846   1.00
C6       0.23084    0.63491    0.03073   1.00
C6       0.23847    0.61628    -0.03005   1.00
C6       0.24584    0.60570    0.00759   1.00
H3       0.20930    0.66810    -0.05300   1.00
H3       0.23181    0.63576    0.06197   1.00
H3       0.24626    0.60009    -0.05575   1.00
H3       0.26048    0.57958    0.01713   1.00
C4       0.74998    0.25020    0.47915   1.00
C4       0.75002    0.24980    0.52085   1.00
C3a      0.72432    0.27485    0.45746   1.00
C3       0.76944    0.27908    0.54232   1.00
C3       0.77557    0.22613    0.45768   1.00
C3a      0.73068    0.21994    0.54254   1.00
C2       0.75008    0.25001    0.39488   1.00
C2       0.75008    0.25001    0.60512   1.00
C3       0.72473    0.27431    0.41595   1.00
C3       0.76934    0.27920    0.58363   1.00
C3       0.77550    0.22599    0.41637   1.00
C3       0.73096    0.22056    0.58405   1.00
C5       0.69568    0.30166    0.47772   1.00
H1       0.78445    0.30223    0.52691   1.00
H1       0.70504    0.29295    0.39979   1.00
H1       0.78439    0.30231    0.59901   1.00
H1       0.79544    0.20693    0.40099   1.00
H1       0.71605    0.19791    0.60021   1.00
C5       0.70893    0.18729    0.52228   1.00
H1       0.79547    0.20702    0.47309   1.00
H2       0.68727    0.17426    0.54256   1.00
H2       0.69190    0.19898    0.49731   1.00
H2       0.67162    0.30940    0.45744   1.00
H2       0.68178    0.28639    0.50269   1.00
N1       0.73588    0.15713    0.50857   1.00
C6       0.75765    0.13358    0.53073   1.00
C6       0.74258    0.14714    0.47154   1.00
C6       0.77893    0.10857    0.50759   1.00
C6       0.76934    0.11718    0.46995   1.00
H3       0.75840    0.13462    0.56197   1.00
H3       0.72910    0.16096    0.44700   1.00
H3       0.79915    0.08649    0.51713   1.00
H3       0.78062    0.10320    0.44425   1.00
N1       0.71502    0.33718    0.49143   1.00
C6       0.71927    0.34845    0.52846   1.00
C6       0.73084    0.36509    0.46927   1.00
C6       0.73847    0.38372    0.53005   1.00
C6       0.74584    0.39430    0.49241   1.00
H3       0.70930    0.33190    0.55300   1.00
H3       0.73181    0.36424    0.43803   1.00
H3       0.74626    0.39991    0.55575   1.00
H3       0.76048    0.42042    0.48287   1.00
C4       0.75020    0.47915    0.24998   1.00
C4       0.74980    0.52085    0.25002   1.00
C3a      0.77485    0.45746    0.22432   1.00
C3       0.77908    0.54232    0.26944   1.00
C3       0.72613    0.45768    0.27557   1.00
C3a      0.71994    0.54254    0.23068   1.00
C2       0.75001    0.39488    0.25008   1.00
C2       0.75001    0.60512    0.25008   1.00
C3       0.77431    0.41595    0.22473   1.00
C3       0.77920    0.58363    0.26934   1.00
C3       0.72599    0.41637    0.27550   1.00
C3       0.72056    0.58405    0.23096   1.00
C5       0.80166    0.47772    0.19568   1.00
H1       0.80223    0.52691    0.28445   1.00
H1       0.79295    0.39979    0.20504   1.00
H1       0.80231    0.59901    0.28439   1.00
H1       0.70693    0.40099    0.29544   1.00
H1       0.69791    0.60021    0.21605   1.00
C5       0.68729    0.52228    0.20893   1.00
H1       0.70702    0.47309    0.29547   1.00
H2       0.67426    0.54256    0.18727   1.00
H2       0.69898    0.49731    0.19190   1.00
H2       0.80940    0.45744    0.17162   1.00
H2       0.78639    0.50269    0.18178   1.00
N1       0.65713    0.50857    0.23588   1.00
C6       0.63358    0.53073    0.25765   1.00
C6       0.64714    0.47154    0.24258   1.00
C6       0.60857    0.50759    0.27893   1.00
C6       0.61718    0.46995    0.26934   1.00
H3       0.63462    0.56197    0.25840   1.00
H3       0.66096    0.44700    0.22910   1.00
H3       0.58649    0.51713    0.29915   1.00
H3       0.60320    0.44425    0.28062   1.00
N1       0.83718    0.49143    0.21502   1.00
C6       0.84845    0.52846    0.21927   1.00
C6       0.86509    0.46927    0.23084   1.00
C6       0.88372    0.53005    0.23847   1.00
C6       0.89430    0.49241    0.24584   1.00
H3       0.83190    0.55300    0.20930   1.00
H3       0.86424    0.43803    0.23181   1.00
H3       0.89991    0.55575    0.24626   1.00
H3       0.92042    0.48287    0.26048   1.00
C4       0.52085    0.24998    0.24980   1.00
C4       0.47915    0.25002    0.25020   1.00
C3a      0.54254    0.22432    0.22515   1.00
C3       0.45768    0.26944    0.22092   1.00
C3       0.54232    0.27557    0.27387   1.00
C3a      0.45746    0.23068    0.28006   1.00
C2       0.60512    0.25008    0.24999   1.00
C2       0.39488    0.25008    0.24999   1.00
C3       0.58405    0.22473    0.22569   1.00
C3       0.41637    0.26934    0.22080   1.00
C3       0.58363    0.27550    0.27401   1.00
C3       0.41595    0.23096    0.27944   1.00
C5       0.52228    0.19568    0.19834   1.00
H1       0.47309    0.28445    0.19777   1.00
H1       0.60021    0.20504    0.20705   1.00
H1       0.40099    0.28439    0.19769   1.00
H1       0.59901    0.29544    0.29307   1.00
H1       0.39979    0.21605    0.30209   1.00
C5       0.47772    0.20893    0.31271   1.00
H1       0.52691    0.29547    0.29298   1.00
H2       0.45744    0.18727    0.32574   1.00
H2       0.50269    0.19190    0.30102   1.00
H2       0.54256    0.17162    0.19060   1.00
H2       0.49731    0.18178    0.21361   1.00
N1       0.49143    0.23588    0.34287   1.00
C6       0.46927    0.25765    0.36642   1.00
C6       0.52846    0.24258    0.35286   1.00
C6       0.49241    0.27893    0.39143   1.00
C6       0.53005    0.26934    0.38282   1.00
H3       0.43803    0.25840    0.36538   1.00
H3       0.55300    0.22910    0.33904   1.00
H3       0.48287    0.29915    0.41351   1.00
H3       0.55575    0.28062    0.39680   1.00
N1       0.50857    0.21502    0.16282   1.00
C6       0.47154    0.21927    0.15155   1.00
C6       0.53073    0.23084    0.13491   1.00
C6       0.46995    0.23847    0.11628   1.00
C6       0.50759    0.24584    0.10570   1.00
H3       0.44700    0.20930    0.16810   1.00
H3       0.56197    0.23181    0.13576   1.00
H3       0.44425    0.24626    0.10009   1.00
H3       0.51713    0.26048    0.07958   1.00
C4       0.97915    0.24998    0.25020   1.00
C4       1.02085    0.25002    0.24980   1.00
C3a      0.95746    0.22432    0.27485   1.00
C3       1.04232    0.26944    0.27908   1.00
C3       0.95768    0.27557    0.22613   1.00
C3a      1.04254    0.23068    0.21994   1.00
C2       0.89488    0.25008    0.25001   1.00
C2       1.10512    0.25008    0.25001   1.00
C3       0.91595    0.22473    0.27431   1.00
C3       1.08363    0.26934    0.27920   1.00
C3       0.91637    0.27550    0.22599   1.00
C3       1.08405    0.23096    0.22056   1.00
C5       0.97772    0.19568    0.30166   1.00
H1       1.02691    0.28445    0.30223   1.00
H1       0.89979    0.20504    0.29295   1.00
H1       1.09901    0.28439    0.30231   1.00
H1       0.90099    0.29544    0.20693   1.00
H1       1.10021    0.21605    0.19791   1.00
C5       1.02228    0.20893    0.18729   1.00
H1       0.97309    0.29547    0.20702   1.00
H2       1.04256    0.18727    0.17426   1.00
H2       0.99731    0.19190    0.19898   1.00
H2       0.95744    0.17162    0.30940   1.00
H2       1.00269    0.18178    0.28639   1.00
N1       1.00857    0.23588    0.15713   1.00
C6       1.03073    0.25765    0.13358   1.00
C6       0.97154    0.24258    0.14714   1.00
C6       1.00759    0.27893    0.10857   1.00
C6       0.96995    0.26934    0.11718   1.00
H3       1.06197    0.25840    0.13462   1.00
H3       0.94700    0.22910    0.16096   1.00
H3       1.01713    0.29915    0.08649   1.00
H3       0.94425    0.28062    0.10320   1.00
N1       0.99143    0.21502    0.33718   1.00
C6       1.02846    0.21927    0.34845   1.00
C6       0.96927    0.23084    0.36509   1.00
C6       1.03005    0.23847    0.38372   1.00
C6       0.99241    0.24584    0.39430   1.00
H3       1.05300    0.20930    0.33190   1.00
H3       0.93803    0.23181    0.36424   1.00
H3       1.05575    0.24626    0.39991   1.00
H3       0.98287    0.26048    0.42042   1.00
C4       0.74980    0.02085    0.24998   1.00
C4       0.75020    -0.02085   0.25002   1.00
C3a      0.72515    0.04254    0.22432   1.00
C3       0.72092    -0.04232   0.26944   1.00
C3       0.77387    0.04232    0.27557   1.00
C3a      0.78006    -0.04254   0.23068   1.00
C2       0.74999    0.10512    0.25008   1.00
C2       0.74999    -0.10512   0.25008   1.00
C3       0.72569    0.08405    0.22473   1.00
C3       0.72080    -0.08363   0.26934   1.00
C3       0.77401    0.08363    0.27550   1.00
C3       0.77944    -0.08405   0.23096   1.00
C5       0.69834    0.02228    0.19568   1.00
H1       0.69777    -0.02691   0.28445   1.00
H1       0.70705    0.10021    0.20504   1.00
H1       0.69769    -0.09901   0.28439   1.00
H1       0.79307    0.09901    0.29544   1.00
H1       0.80209    -0.10021   0.21605   1.00
C5       0.81271    -0.02228   0.20893   1.00
H1       0.79298    0.02691    0.29547   1.00
H2       0.82574    -0.04256   0.18727   1.00
H2       0.80102    0.00269    0.19190   1.00
H2       0.69060    0.04256    0.17162   1.00
H2       0.71361    -0.00269   0.18178   1.00
N1       0.84287    -0.00857   0.23588   1.00
C6       0.86642    -0.03073   0.25765   1.00
C6       0.85286    0.02846    0.24258   1.00
C6       0.89143    -0.00759   0.27893   1.00
C6       0.88282    0.03005    0.26934   1.00
H3       0.86538    -0.06197   0.25840   1.00
H3       0.83904    0.05300    0.22910   1.00
H3       0.91351    -0.01713   0.29915   1.00
H3       0.89680    0.05575    0.28062   1.00
N1       0.66282    0.00857    0.21502   1.00
C6       0.65155    -0.02846   0.21927   1.00
C6       0.63491    0.03073    0.23084   1.00
C6       0.61628    -0.03005   0.23847   1.00
C6       0.60570    0.00759    0.24584   1.00
H3       0.66810    -0.05300   0.20930   1.00
H3       0.63576    0.06197    0.23181   1.00
H3       0.60009    -0.05575   0.24626   1.00
H3       0.57958    0.01713    0.26048   1.00
C4       0.74998    0.24980    0.02085   1.00
C4       0.75002    0.25020    -0.02085   1.00
C3a      0.72432    0.22515    0.04254   1.00
C3       0.76944    0.22092    -0.04232   1.00
C3       0.77557    0.27387    0.04232   1.00
C3a      0.73068    0.28006    -0.04254   1.00
C2       0.75008    0.24999    0.10512   1.00
C2       0.75008    0.24999    -0.10512   1.00
C3       0.72473    0.22569    0.08405   1.00
C3       0.76934    0.22080    -0.08363   1.00
C3       0.77550    0.27401    0.08363   1.00
C3       0.73096    0.27944    -0.08405   1.00
C5       0.69568    0.19834    0.02228   1.00
H1       0.78445    0.19777    -0.02691   1.00
H1       0.70504    0.20705    0.10021   1.00
H1       0.78439    0.19769    -0.09901   1.00
H1       0.79544    0.29307    0.09901   1.00
H1       0.71605    0.30209    -0.10021   1.00
C5       0.70893    0.31271    -0.02228   1.00
H1       0.79547    0.29298    0.02691   1.00
H2       0.68727    0.32574    -0.04256   1.00
H2       0.69190    0.30102    0.00269   1.00
H2       0.67162    0.19060    0.04256   1.00
H2       0.68178    0.21361    -0.00269   1.00
N1       0.73588    0.34287    -0.00857   1.00
C6       0.75765    0.36642    -0.03073   1.00
C6       0.74258    0.35286    0.02846   1.00
C6       0.77893    0.39143    -0.00759   1.00
C6       0.76934    0.38282    0.03005   1.00
H3       0.75840    0.36538    -0.06197   1.00
H3       0.72910    0.33904    0.05300   1.00
H3       0.79915    0.41351    -0.01713   1.00
H3       0.78062    0.39680    0.05575   1.00
N1       0.71502    0.16282    0.00857   1.00
C6       0.71927    0.15155    -0.02846   1.00
C6       0.73084    0.13491    0.03073   1.00
C6       0.73847    0.11628    -0.03005   1.00
C6       0.74584    0.10570    0.00759   1.00
H3       0.70930    0.16810    -0.05300   1.00
H3       0.73181    0.13576    0.06197   1.00
H3       0.74626    0.10009    -0.05575   1.00
H3       0.76048    0.07958    0.01713   1.00
