data_IRMOF10_SG202_Ligand10_label_q.

_audit_creation_method             'generated by an auxiliary program of Tobunporous'

_symmetry_space_group_name_H-M     'P 1'
_symmetry_Int_Tables_number        1
_symmetry_cell_setting             triclinic

_cell_length_a                    34.2800
_cell_length_b                    34.2800
_cell_length_c                    34.2800
_cell_angle_alpha                 90.0000
_cell_angle_beta                  90.0000
_cell_angle_gamma                 90.0000

loop_
_atom_site_label
_atom_site_fract_x
_atom_site_fract_y
_atom_site_fract_z
_atom_site_occupancy
O1       0.75000    0.75000    0.75000   1.00
Zn1      0.71720    0.78280    0.78280   1.00
Zn1      0.78280    0.71720    0.78280   1.00
Zn1      0.78280    0.78280    0.71720   1.00
Zn1      0.71720    0.71720    0.71720   1.00
O2       0.72650    0.77350    0.83820   1.00
O2       0.72650    0.83820    0.77350   1.00
O2       0.66180    0.77350    0.77350   1.00
O2       0.77350    0.72650    0.83820   1.00
O2       0.83820    0.72650    0.77350   1.00
O2       0.77350    0.66180    0.77350   1.00
O2       0.77350    0.83820    0.72650   1.00
O2       0.83820    0.77350    0.72650   1.00
O2       0.77350    0.77350    0.66180   1.00
O2       0.66180    0.72650    0.72650   1.00
O2       0.72650    0.66180    0.72650   1.00
O2       0.72650    0.72650    0.66180   1.00
C1       0.75000    0.75000    0.85520   1.00
C1       0.75000    0.85520    0.75000   1.00
C1       0.64480    0.75000    0.75000   1.00
C1       0.85520    0.75000    0.75000   1.00
C1       0.75000    0.64480    0.75000   1.00
C1       0.75000    0.75000    0.64480   1.00
O1       0.25000    0.25000    0.75000   1.00
Zn1      0.21720    0.28280    0.78280   1.00
Zn1      0.28280    0.21720    0.78280   1.00
Zn1      0.28280    0.28280    0.71720   1.00
Zn1      0.21720    0.21720    0.71720   1.00
O2       0.22650    0.27350    0.83820   1.00
O2       0.22650    0.33820    0.77350   1.00
O2       0.16180    0.27350    0.77350   1.00
O2       0.27350    0.22650    0.83820   1.00
O2       0.33820    0.22650    0.77350   1.00
O2       0.27350    0.16180    0.77350   1.00
O2       0.27350    0.33820    0.72650   1.00
O2       0.33820    0.27350    0.72650   1.00
O2       0.27350    0.27350    0.66180   1.00
O2       0.16180    0.22650    0.72650   1.00
O2       0.22650    0.16180    0.72650   1.00
O2       0.22650    0.22650    0.66180   1.00
C1       0.25000    0.25000    0.85520   1.00
C1       0.25000    0.35520    0.75000   1.00
C1       0.14480    0.25000    0.75000   1.00
C1       0.35520    0.25000    0.75000   1.00
C1       0.25000    0.14480    0.75000   1.00
C1       0.25000    0.25000    0.64480   1.00
O1       0.25000    0.75000    0.25000   1.00
Zn1      0.21720    0.78280    0.28280   1.00
Zn1      0.28280    0.71720    0.28280   1.00
Zn1      0.28280    0.78280    0.21720   1.00
Zn1      0.21720    0.71720    0.21720   1.00
O2       0.22650    0.77350    0.33820   1.00
O2       0.22650    0.83820    0.27350   1.00
O2       0.16180    0.77350    0.27350   1.00
O2       0.27350    0.72650    0.33820   1.00
O2       0.33820    0.72650    0.27350   1.00
O2       0.27350    0.66180    0.27350   1.00
O2       0.27350    0.83820    0.22650   1.00
O2       0.33820    0.77350    0.22650   1.00
O2       0.27350    0.77350    0.16180   1.00
O2       0.16180    0.72650    0.22650   1.00
O2       0.22650    0.66180    0.22650   1.00
O2       0.22650    0.72650    0.16180   1.00
C1       0.25000    0.75000    0.35520   1.00
C1       0.25000    0.85520    0.25000   1.00
C1       0.14480    0.75000    0.25000   1.00
C1       0.35520    0.75000    0.25000   1.00
C1       0.25000    0.64480    0.25000   1.00
C1       0.25000    0.75000    0.14480   1.00
O1       0.75000    0.25000    0.25000   1.00
Zn1      0.71720    0.28280    0.28280   1.00
Zn1      0.78280    0.21720    0.28280   1.00
Zn1      0.78280    0.28280    0.21720   1.00
Zn1      0.71720    0.21720    0.21720   1.00
O2       0.72650    0.27350    0.33820   1.00
O2       0.72650    0.33820    0.27350   1.00
O2       0.66180    0.27350    0.27350   1.00
O2       0.77350    0.22650    0.33820   1.00
O2       0.83820    0.22650    0.27350   1.00
O2       0.77350    0.16180    0.27350   1.00
O2       0.77350    0.33820    0.22650   1.00
O2       0.83820    0.27350    0.22650   1.00
O2       0.77350    0.27350    0.16180   1.00
O2       0.66180    0.22650    0.22650   1.00
O2       0.72650    0.16180    0.22650   1.00
O2       0.72650    0.22650    0.16180   1.00
C1       0.75000    0.25000    0.35520   1.00
C1       0.75000    0.35520    0.25000   1.00
C1       0.64480    0.25000    0.25000   1.00
C1       0.85520    0.25000    0.25000   1.00
C1       0.75000    0.14480    0.25000   1.00
C1       0.75000    0.25000    0.14480   1.00
O1       0.25000    0.25000    0.25000   1.00
Zn1      0.28280    0.21720    0.21720   1.00
Zn1      0.21720    0.28280    0.21720   1.00
Zn1      0.21720    0.21720    0.28280   1.00
Zn1      0.28280    0.28280    0.28280   1.00
O2       0.27350    0.22650    0.16180   1.00
O2       0.27350    0.16180    0.22650   1.00
O2       0.33820    0.22650    0.22650   1.00
O2       0.22650    0.27350    0.16180   1.00
O2       0.16180    0.27350    0.22650   1.00
O2       0.22650    0.33820    0.22650   1.00
O2       0.22650    0.16180    0.27350   1.00
O2       0.16180    0.22650    0.27350   1.00
O2       0.22650    0.22650    0.33820   1.00
O2       0.33820    0.27350    0.27350   1.00
O2       0.27350    0.33820    0.27350   1.00
O2       0.27350    0.27350    0.33820   1.00
C1       0.25000    0.25000    0.14480   1.00
C1       0.25000    0.14480    0.25000   1.00
C1       0.35520    0.25000    0.25000   1.00
C1       0.14480    0.25000    0.25000   1.00
C1       0.25000    0.35520    0.25000   1.00
C1       0.25000    0.25000    0.35520   1.00
O1       0.75000    0.75000    0.25000   1.00
Zn1      0.78280    0.71720    0.21720   1.00
Zn1      0.71720    0.78280    0.21720   1.00
Zn1      0.71720    0.71720    0.28280   1.00
Zn1      0.78280    0.78280    0.28280   1.00
O2       0.77350    0.72650    0.16180   1.00
O2       0.77350    0.66180    0.22650   1.00
O2       0.83820    0.72650    0.22650   1.00
O2       0.72650    0.77350    0.16180   1.00
O2       0.66180    0.77350    0.22650   1.00
O2       0.72650    0.83820    0.22650   1.00
O2       0.72650    0.66180    0.27350   1.00
O2       0.66180    0.72650    0.27350   1.00
O2       0.72650    0.72650    0.33820   1.00
O2       0.83820    0.77350    0.27350   1.00
O2       0.77350    0.83820    0.27350   1.00
O2       0.77350    0.77350    0.33820   1.00
C1       0.75000    0.75000    0.14480   1.00
C1       0.75000    0.64480    0.25000   1.00
C1       0.85520    0.75000    0.25000   1.00
C1       0.64480    0.75000    0.25000   1.00
C1       0.75000    0.85520    0.25000   1.00
C1       0.75000    0.75000    0.35520   1.00
O1       0.75000    0.25000    0.75000   1.00
Zn1      0.78280    0.21720    0.71720   1.00
Zn1      0.71720    0.28280    0.71720   1.00
Zn1      0.71720    0.21720    0.78280   1.00
Zn1      0.78280    0.28280    0.78280   1.00
O2       0.77350    0.22650    0.66180   1.00
O2       0.77350    0.16180    0.72650   1.00
O2       0.83820    0.22650    0.72650   1.00
O2       0.72650    0.27350    0.66180   1.00
O2       0.66180    0.27350    0.72650   1.00
O2       0.72650    0.33820    0.72650   1.00
O2       0.72650    0.16180    0.77350   1.00
O2       0.66180    0.22650    0.77350   1.00
O2       0.72650    0.22650    0.83820   1.00
O2       0.83820    0.27350    0.77350   1.00
O2       0.77350    0.33820    0.77350   1.00
O2       0.77350    0.27350    0.83820   1.00
C1       0.75000    0.25000    0.64480   1.00
C1       0.75000    0.14480    0.75000   1.00
C1       0.85520    0.25000    0.75000   1.00
C1       0.64480    0.25000    0.75000   1.00
C1       0.75000    0.35520    0.75000   1.00
C1       0.75000    0.25000    0.85520   1.00
O1       0.25000    0.75000    0.75000   1.00
Zn1      0.28280    0.71720    0.71720   1.00
Zn1      0.21720    0.78280    0.71720   1.00
Zn1      0.21720    0.71720    0.78280   1.00
Zn1      0.28280    0.78280    0.78280   1.00
O2       0.27350    0.72650    0.66180   1.00
O2       0.27350    0.66180    0.72650   1.00
O2       0.33820    0.72650    0.72650   1.00
O2       0.22650    0.77350    0.66180   1.00
O2       0.16180    0.77350    0.72650   1.00
O2       0.22650    0.83820    0.72650   1.00
O2       0.22650    0.66180    0.77350   1.00
O2       0.16180    0.72650    0.77350   1.00
O2       0.22650    0.72650    0.83820   1.00
O2       0.33820    0.77350    0.77350   1.00
O2       0.27350    0.83820    0.77350   1.00
O2       0.27350    0.77350    0.83820   1.00
C1       0.25000    0.75000    0.64480   1.00
C1       0.25000    0.64480    0.75000   1.00
C1       0.35520    0.75000    0.75000   1.00
C1       0.14480    0.75000    0.75000   1.00
C1       0.25000    0.85520    0.75000   1.00
C1       0.25000    0.75000    0.85520   1.00
C4       0.74994    0.74962    0.97915   1.00
C4       0.75006    0.75038    1.02085   1.00
C3       0.71552    0.74231    0.95751   1.00
C3       0.71927    0.76729    1.04252   1.00
C3       0.78425    0.75703    0.95738   1.00
C3       0.78078    0.73335    1.04259   1.00
C2       0.74984    0.75003    0.89482   1.00
C2       0.74984    0.75003    1.10518   1.00
C3a      0.71532    0.74247    0.91599   1.00
C3       0.71924    0.76710    1.08382   1.00
C3       0.78414    0.75722    0.91611   1.00
C3a      0.78086    0.73309    1.08403   1.00
H1       0.68866    0.73614    0.97294   1.00
H1       0.69516    0.78112    1.02750   1.00
C5       0.67813    0.73437    0.89410   1.00
H1       0.69514    0.78039    1.09933   1.00
H1       0.81095    0.76331    0.90056   1.00
C5       0.81447    0.71452    1.10535   1.00
H1       0.80451    0.71903    1.02747   1.00
H1       0.81132    0.76353    0.97230   1.00
H2       0.84152    0.73100    1.09837   1.00
H2       0.81028    0.71620    1.13747   1.00
N1       0.81868    0.67360    1.09395   1.00
C6       0.82757    0.66023    1.05810   1.00
C6       0.81473    0.64245    1.11757   1.00
C6       0.82915    0.62002    1.05873   1.00
C6       0.82098    0.60871    1.09656   1.00
H3       0.83267    0.67848    1.03281   1.00
H3       0.80759    0.64405    1.14831   1.00
H3       0.83560    0.60104    1.03436   1.00
H3       0.81975    0.57919    1.10758   1.00
H2       0.68403    0.73643    0.86228   1.00
H2       0.66736    0.70438    0.90001   1.00
N1       0.64802    0.76236    0.90523   1.00
C6       0.62876    0.78967    0.88078   1.00
C6       0.63157    0.76786    0.94285   1.00
C6       0.60219    0.81049    0.90277   1.00
C6       0.60392    0.79711    0.94091   1.00
H3       0.63429    0.79343    0.84992   1.00
H3       0.63989    0.75182    0.96876   1.00
H3       0.58331    0.83337    0.89205   1.00
H3       0.58667    0.80780    0.96505   1.00
C4       0.74962    0.97915    0.74994   1.00
C4       0.75038    1.02085    0.75006   1.00
C3       0.74231    0.95751    0.71552   1.00
C3       0.76729    1.04252    0.71927   1.00
C3       0.75703    0.95738    0.78425   1.00
C3       0.73335    1.04259    0.78078   1.00
C2       0.75003    0.89482    0.74984   1.00
C2       0.75003    1.10518    0.74984   1.00
C3a      0.74247    0.91599    0.71532   1.00
C3       0.76710    1.08382    0.71924   1.00
C3       0.75722    0.91611    0.78414   1.00
C3a      0.73309    1.08403    0.78086   1.00
H1       0.73614    0.97294    0.68866   1.00
H1       0.78112    1.02750    0.69516   1.00
C5       0.73437    0.89410    0.67813   1.00
H1       0.78039    1.09933    0.69514   1.00
H1       0.76331    0.90056    0.81095   1.00
C5       0.71452    1.10535    0.81447   1.00
H1       0.71903    1.02747    0.80451   1.00
H1       0.76353    0.97230    0.81132   1.00
H2       0.73100    1.09837    0.84152   1.00
H2       0.71620    1.13747    0.81028   1.00
N1       0.67360    1.09395    0.81868   1.00
C6       0.66023    1.05810    0.82757   1.00
C6       0.64245    1.11757    0.81473   1.00
C6       0.62002    1.05873    0.82915   1.00
C6       0.60871    1.09656    0.82098   1.00
H3       0.67848    1.03281    0.83267   1.00
H3       0.64405    1.14831    0.80759   1.00
H3       0.60104    1.03436    0.83560   1.00
H3       0.57919    1.10758    0.81975   1.00
H2       0.73643    0.86228    0.68403   1.00
H2       0.70438    0.90001    0.66736   1.00
N1       0.76236    0.90523    0.64802   1.00
C6       0.78967    0.88078    0.62876   1.00
C6       0.76786    0.94285    0.63157   1.00
C6       0.81049    0.90277    0.60219   1.00
C6       0.79711    0.94091    0.60392   1.00
H3       0.79343    0.84992    0.63429   1.00
H3       0.75182    0.96876    0.63989   1.00
H3       0.83337    0.89205    0.58331   1.00
H3       0.80780    0.96505    0.58667   1.00
C4       0.52085    0.74994    0.75038   1.00
C4       0.47915    0.75006    0.74962   1.00
C3       0.54249    0.71552    0.75769   1.00
C3       0.45748    0.71927    0.73271   1.00
C3       0.54262    0.78425    0.74297   1.00
C3       0.45741    0.78078    0.76665   1.00
C2       0.60518    0.74984    0.74997   1.00
C2       0.39482    0.74984    0.74997   1.00
C3a      0.58401    0.71532    0.75753   1.00
C3       0.41618    0.71924    0.73290   1.00
C3       0.58389    0.78414    0.74278   1.00
C3a      0.41597    0.78086    0.76691   1.00
H1       0.52706    0.68866    0.76386   1.00
H1       0.47250    0.69516    0.71888   1.00
C5       0.60590    0.67813    0.76563   1.00
H1       0.40067    0.69514    0.71961   1.00
H1       0.59944    0.81095    0.73669   1.00
C5       0.39465    0.81447    0.78548   1.00
H1       0.47253    0.80451    0.78097   1.00
H1       0.52770    0.81132    0.73647   1.00
H2       0.40163    0.84152    0.76900   1.00
H2       0.36253    0.81028    0.78380   1.00
N1       0.40605    0.81868    0.82640   1.00
C6       0.44190    0.82757    0.83977   1.00
C6       0.38243    0.81473    0.85755   1.00
C6       0.44127    0.82915    0.87998   1.00
C6       0.40344    0.82098    0.89129   1.00
H3       0.46719    0.83267    0.82152   1.00
H3       0.35169    0.80759    0.85595   1.00
H3       0.46564    0.83560    0.89896   1.00
H3       0.39242    0.81975    0.92081   1.00
H2       0.63772    0.68403    0.76357   1.00
H2       0.59999    0.66736    0.79562   1.00
N1       0.59477    0.64802    0.73764   1.00
C6       0.61922    0.62876    0.71033   1.00
C6       0.55715    0.63157    0.73214   1.00
C6       0.59723    0.60219    0.68951   1.00
C6       0.55909    0.60392    0.70289   1.00
H3       0.65008    0.63429    0.70657   1.00
H3       0.53124    0.63989    0.74818   1.00
H3       0.60795    0.58331    0.66663   1.00
H3       0.53495    0.58667    0.69220   1.00
C4       0.97915    0.74994    0.74962   1.00
C4       1.02085    0.75006    0.75038   1.00
C3       0.95751    0.71552    0.74231   1.00
C3       1.04252    0.71927    0.76729   1.00
C3       0.95738    0.78425    0.75703   1.00
C3       1.04259    0.78078    0.73335   1.00
C2       0.89482    0.74984    0.75003   1.00
C2       1.10518    0.74984    0.75003   1.00
C3a      0.91599    0.71532    0.74247   1.00
C3       1.08382    0.71924    0.76710   1.00
C3       0.91611    0.78414    0.75722   1.00
C3a      1.08403    0.78086    0.73309   1.00
H1       0.97294    0.68866    0.73614   1.00
H1       1.02750    0.69516    0.78112   1.00
C5       0.89410    0.67813    0.73437   1.00
H1       1.09933    0.69514    0.78039   1.00
H1       0.90056    0.81095    0.76331   1.00
C5       1.10535    0.81447    0.71452   1.00
H1       1.02747    0.80451    0.71903   1.00
H1       0.97230    0.81132    0.76353   1.00
H2       1.09837    0.84152    0.73100   1.00
H2       1.13747    0.81028    0.71620   1.00
N1       1.09395    0.81868    0.67360   1.00
C6       1.05810    0.82757    0.66023   1.00
C6       1.11757    0.81473    0.64245   1.00
C6       1.05873    0.82915    0.62002   1.00
C6       1.09656    0.82098    0.60871   1.00
H3       1.03281    0.83267    0.67848   1.00
H3       1.14831    0.80759    0.64405   1.00
H3       1.03436    0.83560    0.60104   1.00
H3       1.10758    0.81975    0.57919   1.00
H2       0.86228    0.68403    0.73643   1.00
H2       0.90001    0.66736    0.70438   1.00
N1       0.90523    0.64802    0.76236   1.00
C6       0.88078    0.62876    0.78967   1.00
C6       0.94285    0.63157    0.76786   1.00
C6       0.90277    0.60219    0.81049   1.00
C6       0.94091    0.60392    0.79711   1.00
H3       0.84992    0.63429    0.79343   1.00
H3       0.96876    0.63989    0.75182   1.00
H3       0.89205    0.58331    0.83337   1.00
H3       0.96505    0.58667    0.80780   1.00
C4       0.75038    0.52085    0.74994   1.00
C4       0.74962    0.47915    0.75006   1.00
C3       0.75769    0.54249    0.71552   1.00
C3       0.73271    0.45748    0.71927   1.00
C3       0.74297    0.54262    0.78425   1.00
C3       0.76665    0.45741    0.78078   1.00
C2       0.74997    0.60518    0.74984   1.00
C2       0.74997    0.39482    0.74984   1.00
C3a      0.75753    0.58401    0.71532   1.00
C3       0.73290    0.41618    0.71924   1.00
C3       0.74278    0.58389    0.78414   1.00
C3a      0.76691    0.41597    0.78086   1.00
H1       0.76386    0.52706    0.68866   1.00
H1       0.71888    0.47250    0.69516   1.00
C5       0.76563    0.60590    0.67813   1.00
H1       0.71961    0.40067    0.69514   1.00
H1       0.73669    0.59944    0.81095   1.00
C5       0.78548    0.39465    0.81447   1.00
H1       0.78097    0.47253    0.80451   1.00
H1       0.73647    0.52770    0.81132   1.00
H2       0.76900    0.40163    0.84152   1.00
H2       0.78380    0.36253    0.81028   1.00
N1       0.82640    0.40605    0.81868   1.00
C6       0.83977    0.44190    0.82757   1.00
C6       0.85755    0.38243    0.81473   1.00
C6       0.87998    0.44127    0.82915   1.00
C6       0.89129    0.40344    0.82098   1.00
H3       0.82152    0.46719    0.83267   1.00
H3       0.85595    0.35169    0.80759   1.00
H3       0.89896    0.46564    0.83560   1.00
H3       0.92081    0.39242    0.81975   1.00
H2       0.76357    0.63772    0.68403   1.00
H2       0.79562    0.59999    0.66736   1.00
N1       0.73764    0.59477    0.64802   1.00
C6       0.71033    0.61922    0.62876   1.00
C6       0.73214    0.55715    0.63157   1.00
C6       0.68951    0.59723    0.60219   1.00
C6       0.70289    0.55909    0.60392   1.00
H3       0.70657    0.65008    0.63429   1.00
H3       0.74818    0.53124    0.63989   1.00
H3       0.66663    0.60795    0.58331   1.00
H3       0.69220    0.53495    0.58667   1.00
C4       0.74994    0.75038    0.52085   1.00
C4       0.75006    0.74962    0.47915   1.00
C3       0.71552    0.75769    0.54249   1.00
C3       0.71927    0.73271    0.45748   1.00
C3       0.78425    0.74297    0.54262   1.00
C3       0.78078    0.76665    0.45741   1.00
C2       0.74984    0.74997    0.60518   1.00
C2       0.74984    0.74997    0.39482   1.00
C3a      0.71532    0.75753    0.58401   1.00
C3       0.71924    0.73290    0.41618   1.00
C3       0.78414    0.74278    0.58389   1.00
C3a      0.78086    0.76691    0.41597   1.00
H1       0.68866    0.76386    0.52706   1.00
H1       0.69516    0.71888    0.47250   1.00
C5       0.67813    0.76563    0.60590   1.00
H1       0.69514    0.71961    0.40067   1.00
H1       0.81095    0.73669    0.59944   1.00
C5       0.81447    0.78548    0.39465   1.00
H1       0.80451    0.78097    0.47253   1.00
H1       0.81132    0.73647    0.52770   1.00
H2       0.84152    0.76900    0.40163   1.00
H2       0.81028    0.78380    0.36253   1.00
N1       0.81868    0.82640    0.40605   1.00
C6       0.82757    0.83977    0.44190   1.00
C6       0.81473    0.85755    0.38243   1.00
C6       0.82915    0.87998    0.44127   1.00
C6       0.82098    0.89129    0.40344   1.00
H3       0.83267    0.82152    0.46719   1.00
H3       0.80759    0.85595    0.35169   1.00
H3       0.83560    0.89896    0.46564   1.00
H3       0.81975    0.92081    0.39242   1.00
H2       0.68403    0.76357    0.63772   1.00
H2       0.66736    0.79562    0.59999   1.00
N1       0.64802    0.73764    0.59477   1.00
C6       0.62876    0.71033    0.61922   1.00
C6       0.63157    0.73214    0.55715   1.00
C6       0.60219    0.68951    0.59723   1.00
C6       0.60392    0.70289    0.55909   1.00
H3       0.63429    0.70657    0.65008   1.00
H3       0.63989    0.74818    0.53124   1.00
H3       0.58331    0.66663    0.60795   1.00
H3       0.58667    0.69220    0.53495   1.00
C4       0.24994    0.24962    0.97915   1.00
C4       0.25006    0.25038    1.02085   1.00
C3       0.21552    0.24231    0.95751   1.00
C3       0.21927    0.26729    1.04252   1.00
C3       0.28425    0.25703    0.95738   1.00
C3       0.28078    0.23335    1.04259   1.00
C2       0.24984    0.25003    0.89482   1.00
C2       0.24984    0.25003    1.10518   1.00
C3a      0.21532    0.24247    0.91599   1.00
C3       0.21924    0.26710    1.08382   1.00
C3       0.28414    0.25722    0.91611   1.00
C3a      0.28086    0.23309    1.08403   1.00
H1       0.18866    0.23614    0.97294   1.00
H1       0.19516    0.28112    1.02750   1.00
C5       0.17813    0.23437    0.89410   1.00
H1       0.19514    0.28039    1.09933   1.00
H1       0.31095    0.26331    0.90056   1.00
C5       0.31447    0.21452    1.10535   1.00
H1       0.30451    0.21903    1.02747   1.00
H1       0.31132    0.26353    0.97230   1.00
H2       0.34152    0.23100    1.09837   1.00
H2       0.31028    0.21620    1.13747   1.00
N1       0.31868    0.17360    1.09395   1.00
C6       0.32757    0.16023    1.05810   1.00
C6       0.31473    0.14245    1.11757   1.00
C6       0.32915    0.12002    1.05873   1.00
C6       0.32098    0.10871    1.09656   1.00
H3       0.33267    0.17848    1.03281   1.00
H3       0.30759    0.14405    1.14831   1.00
H3       0.33560    0.10104    1.03436   1.00
H3       0.31975    0.07919    1.10758   1.00
H2       0.18403    0.23643    0.86228   1.00
H2       0.16736    0.20438    0.90001   1.00
N1       0.14802    0.26236    0.90523   1.00
C6       0.12876    0.28967    0.88078   1.00
C6       0.13157    0.26786    0.94285   1.00
C6       0.10219    0.31049    0.90277   1.00
C6       0.10392    0.29711    0.94091   1.00
H3       0.13429    0.29343    0.84992   1.00
H3       0.13989    0.25182    0.96876   1.00
H3       0.08331    0.33337    0.89205   1.00
H3       0.08667    0.30780    0.96505   1.00
C4       0.24962    0.47915    0.74994   1.00
C4       0.25038    0.52085    0.75006   1.00
C3       0.24231    0.45751    0.71552   1.00
C3       0.26729    0.54252    0.71927   1.00
C3       0.25703    0.45738    0.78425   1.00
C3       0.23335    0.54259    0.78078   1.00
C2       0.25003    0.39482    0.74984   1.00
C2       0.25003    0.60518    0.74984   1.00
C3a      0.24247    0.41599    0.71532   1.00
C3       0.26710    0.58382    0.71924   1.00
C3       0.25722    0.41611    0.78414   1.00
C3a      0.23309    0.58403    0.78086   1.00
H1       0.23614    0.47294    0.68866   1.00
H1       0.28112    0.52750    0.69516   1.00
C5       0.23437    0.39410    0.67813   1.00
H1       0.28039    0.59933    0.69514   1.00
H1       0.26331    0.40056    0.81095   1.00
C5       0.21452    0.60535    0.81447   1.00
H1       0.21903    0.52747    0.80451   1.00
H1       0.26353    0.47230    0.81132   1.00
H2       0.23100    0.59837    0.84152   1.00
H2       0.21620    0.63747    0.81028   1.00
N1       0.17360    0.59395    0.81868   1.00
C6       0.16023    0.55810    0.82757   1.00
C6       0.14245    0.61757    0.81473   1.00
C6       0.12002    0.55873    0.82915   1.00
C6       0.10871    0.59656    0.82098   1.00
H3       0.17848    0.53281    0.83267   1.00
H3       0.14405    0.64831    0.80759   1.00
H3       0.10104    0.53436    0.83560   1.00
H3       0.07919    0.60758    0.81975   1.00
H2       0.23643    0.36228    0.68403   1.00
H2       0.20438    0.40001    0.66736   1.00
N1       0.26236    0.40523    0.64802   1.00
C6       0.28967    0.38078    0.62876   1.00
C6       0.26786    0.44285    0.63157   1.00
C6       0.31049    0.40277    0.60219   1.00
C6       0.29711    0.44091    0.60392   1.00
H3       0.29343    0.34992    0.63429   1.00
H3       0.25182    0.46876    0.63989   1.00
H3       0.33337    0.39205    0.58331   1.00
H3       0.30780    0.46505    0.58667   1.00
C4       0.02085    0.24994    0.75038   1.00
C4       -0.02085   0.25006    0.74962   1.00
C3       0.04249    0.21552    0.75769   1.00
C3       -0.04252   0.21927    0.73271   1.00
C3       0.04262    0.28425    0.74297   1.00
C3       -0.04259   0.28078    0.76665   1.00
C2       0.10518    0.24984    0.74997   1.00
C2       -0.10518   0.24984    0.74997   1.00
C3a      0.08401    0.21532    0.75753   1.00
C3       -0.08382   0.21924    0.73290   1.00
C3       0.08389    0.28414    0.74278   1.00
C3a      -0.08403   0.28086    0.76691   1.00
H1       0.02706    0.18866    0.76386   1.00
H1       -0.02750   0.19516    0.71888   1.00
C5       0.10590    0.17813    0.76563   1.00
H1       -0.09933   0.19514    0.71961   1.00
H1       0.09944    0.31095    0.73669   1.00
C5       -0.10535   0.31447    0.78548   1.00
H1       -0.02747   0.30451    0.78097   1.00
H1       0.02770    0.31132    0.73647   1.00
H2       -0.09837   0.34152    0.76900   1.00
H2       -0.13747   0.31028    0.78380   1.00
N1       -0.09395   0.31868    0.82640   1.00
C6       -0.05810   0.32757    0.83977   1.00
C6       -0.11757   0.31473    0.85755   1.00
C6       -0.05873   0.32915    0.87998   1.00
C6       -0.09656   0.32098    0.89129   1.00
H3       -0.03281   0.33267    0.82152   1.00
H3       -0.14831   0.30759    0.85595   1.00
H3       -0.03436   0.33560    0.89896   1.00
H3       -0.10758   0.31975    0.92081   1.00
H2       0.13772    0.18403    0.76357   1.00
H2       0.09999    0.16736    0.79562   1.00
N1       0.09477    0.14802    0.73764   1.00
C6       0.11922    0.12876    0.71033   1.00
C6       0.05715    0.13157    0.73214   1.00
C6       0.09723    0.10219    0.68951   1.00
C6       0.05909    0.10392    0.70289   1.00
H3       0.15008    0.13429    0.70657   1.00
H3       0.03124    0.13989    0.74818   1.00
H3       0.10795    0.08331    0.66663   1.00
H3       0.03495    0.08667    0.69220   1.00
C4       0.47915    0.24994    0.74962   1.00
C4       0.52085    0.25006    0.75038   1.00
C3       0.45751    0.21552    0.74231   1.00
C3       0.54252    0.21927    0.76729   1.00
C3       0.45738    0.28425    0.75703   1.00
C3       0.54259    0.28078    0.73335   1.00
C2       0.39482    0.24984    0.75003   1.00
C2       0.60518    0.24984    0.75003   1.00
C3a      0.41599    0.21532    0.74247   1.00
C3       0.58382    0.21924    0.76710   1.00
C3       0.41611    0.28414    0.75722   1.00
C3a      0.58403    0.28086    0.73309   1.00
H1       0.47294    0.18866    0.73614   1.00
H1       0.52750    0.19516    0.78112   1.00
C5       0.39410    0.17813    0.73437   1.00
H1       0.59933    0.19514    0.78039   1.00
H1       0.40056    0.31095    0.76331   1.00
C5       0.60535    0.31447    0.71452   1.00
H1       0.52747    0.30451    0.71903   1.00
H1       0.47230    0.31132    0.76353   1.00
H2       0.59837    0.34152    0.73100   1.00
H2       0.63747    0.31028    0.71620   1.00
N1       0.59395    0.31868    0.67360   1.00
C6       0.55810    0.32757    0.66023   1.00
C6       0.61757    0.31473    0.64245   1.00
C6       0.55873    0.32915    0.62002   1.00
C6       0.59656    0.32098    0.60871   1.00
H3       0.53281    0.33267    0.67848   1.00
H3       0.64831    0.30759    0.64405   1.00
H3       0.53436    0.33560    0.60104   1.00
H3       0.60758    0.31975    0.57919   1.00
H2       0.36228    0.18403    0.73643   1.00
H2       0.40001    0.16736    0.70438   1.00
N1       0.40523    0.14802    0.76236   1.00
C6       0.38078    0.12876    0.78967   1.00
C6       0.44285    0.13157    0.76786   1.00
C6       0.40277    0.10219    0.81049   1.00
C6       0.44091    0.10392    0.79711   1.00
H3       0.34992    0.13429    0.79343   1.00
H3       0.46876    0.13989    0.75182   1.00
H3       0.39205    0.08331    0.83337   1.00
H3       0.46505    0.08667    0.80780   1.00
C4       0.25038    0.02085    0.74994   1.00
C4       0.24962    -0.02085   0.75006   1.00
C3       0.25769    0.04249    0.71552   1.00
C3       0.23271    -0.04252   0.71927   1.00
C3       0.24297    0.04262    0.78425   1.00
C3       0.26665    -0.04259   0.78078   1.00
C2       0.24997    0.10518    0.74984   1.00
C2       0.24997    -0.10518   0.74984   1.00
C3a      0.25753    0.08401    0.71532   1.00
C3       0.23290    -0.08382   0.71924   1.00
C3       0.24278    0.08389    0.78414   1.00
C3a      0.26691    -0.08403   0.78086   1.00
H1       0.26386    0.02706    0.68866   1.00
H1       0.21888    -0.02750   0.69516   1.00
C5       0.26563    0.10590    0.67813   1.00
H1       0.21961    -0.09933   0.69514   1.00
H1       0.23669    0.09944    0.81095   1.00
C5       0.28548    -0.10535   0.81447   1.00
H1       0.28097    -0.02747   0.80451   1.00
H1       0.23647    0.02770    0.81132   1.00
H2       0.26900    -0.09837   0.84152   1.00
H2       0.28380    -0.13747   0.81028   1.00
N1       0.32640    -0.09395   0.81868   1.00
C6       0.33977    -0.05810   0.82757   1.00
C6       0.35755    -0.11757   0.81473   1.00
C6       0.37998    -0.05873   0.82915   1.00
C6       0.39129    -0.09656   0.82098   1.00
H3       0.32152    -0.03281   0.83267   1.00
H3       0.35595    -0.14831   0.80759   1.00
H3       0.39896    -0.03436   0.83560   1.00
H3       0.42081    -0.10758   0.81975   1.00
H2       0.26357    0.13772    0.68403   1.00
H2       0.29562    0.09999    0.66736   1.00
N1       0.23764    0.09477    0.64802   1.00
C6       0.21033    0.11922    0.62876   1.00
C6       0.23214    0.05715    0.63157   1.00
C6       0.18951    0.09723    0.60219   1.00
C6       0.20289    0.05909    0.60392   1.00
H3       0.20657    0.15008    0.63429   1.00
H3       0.24818    0.03124    0.63989   1.00
H3       0.16663    0.10795    0.58331   1.00
H3       0.19220    0.03495    0.58667   1.00
C4       0.24994    0.25038    0.52085   1.00
C4       0.25006    0.24962    0.47915   1.00
C3       0.21552    0.25769    0.54249   1.00
C3       0.21927    0.23271    0.45748   1.00
C3       0.28425    0.24297    0.54262   1.00
C3       0.28078    0.26665    0.45741   1.00
C2       0.24984    0.24997    0.60518   1.00
C2       0.24984    0.24997    0.39482   1.00
C3a      0.21532    0.25753    0.58401   1.00
C3       0.21924    0.23290    0.41618   1.00
C3       0.28414    0.24278    0.58389   1.00
C3a      0.28086    0.26691    0.41597   1.00
H1       0.18866    0.26386    0.52706   1.00
H1       0.19516    0.21888    0.47250   1.00
C5       0.17813    0.26563    0.60590   1.00
H1       0.19514    0.21961    0.40067   1.00
H1       0.31095    0.23669    0.59944   1.00
C5       0.31447    0.28548    0.39465   1.00
H1       0.30451    0.28097    0.47253   1.00
H1       0.31132    0.23647    0.52770   1.00
H2       0.34152    0.26900    0.40163   1.00
H2       0.31028    0.28380    0.36253   1.00
N1       0.31868    0.32640    0.40605   1.00
C6       0.32757    0.33977    0.44190   1.00
C6       0.31473    0.35755    0.38243   1.00
C6       0.32915    0.37998    0.44127   1.00
C6       0.32098    0.39129    0.40344   1.00
H3       0.33267    0.32152    0.46719   1.00
H3       0.30759    0.35595    0.35169   1.00
H3       0.33560    0.39896    0.46564   1.00
H3       0.31975    0.42081    0.39242   1.00
H2       0.18403    0.26357    0.63772   1.00
H2       0.16736    0.29562    0.59999   1.00
N1       0.14802    0.23764    0.59477   1.00
C6       0.12876    0.21033    0.61922   1.00
C6       0.13157    0.23214    0.55715   1.00
C6       0.10219    0.18951    0.59723   1.00
C6       0.10392    0.20289    0.55909   1.00
H3       0.13429    0.20657    0.65008   1.00
H3       0.13989    0.24818    0.53124   1.00
H3       0.08331    0.16663    0.60795   1.00
H3       0.08667    0.19220    0.53495   1.00
C4       0.24994    0.74962    0.47915   1.00
C4       0.25006    0.75038    0.52085   1.00
C3       0.21552    0.74231    0.45751   1.00
C3       0.21927    0.76729    0.54252   1.00
C3       0.28425    0.75703    0.45738   1.00
C3       0.28078    0.73335    0.54259   1.00
C2       0.24984    0.75003    0.39482   1.00
C2       0.24984    0.75003    0.60518   1.00
C3a      0.21532    0.74247    0.41599   1.00
C3       0.21924    0.76710    0.58382   1.00
C3       0.28414    0.75722    0.41611   1.00
C3a      0.28086    0.73309    0.58403   1.00
H1       0.18866    0.73614    0.47294   1.00
H1       0.19516    0.78112    0.52750   1.00
C5       0.17813    0.73437    0.39410   1.00
H1       0.19514    0.78039    0.59933   1.00
H1       0.31095    0.76331    0.40056   1.00
C5       0.31447    0.71452    0.60535   1.00
H1       0.30451    0.71903    0.52747   1.00
H1       0.31132    0.76353    0.47230   1.00
H2       0.34152    0.73100    0.59837   1.00
H2       0.31028    0.71620    0.63747   1.00
N1       0.31868    0.67360    0.59395   1.00
C6       0.32757    0.66023    0.55810   1.00
C6       0.31473    0.64245    0.61757   1.00
C6       0.32915    0.62002    0.55873   1.00
C6       0.32098    0.60871    0.59656   1.00
H3       0.33267    0.67848    0.53281   1.00
H3       0.30759    0.64405    0.64831   1.00
H3       0.33560    0.60104    0.53436   1.00
H3       0.31975    0.57919    0.60758   1.00
H2       0.18403    0.73643    0.36228   1.00
H2       0.16736    0.70438    0.40001   1.00
N1       0.14802    0.76236    0.40523   1.00
C6       0.12876    0.78967    0.38078   1.00
C6       0.13157    0.76786    0.44285   1.00
C6       0.10219    0.81049    0.40277   1.00
C6       0.10392    0.79711    0.44091   1.00
H3       0.13429    0.79343    0.34992   1.00
H3       0.13989    0.75182    0.46876   1.00
H3       0.08331    0.83337    0.39205   1.00
H3       0.08667    0.80780    0.46505   1.00
C4       0.24962    0.97915    0.24994   1.00
C4       0.25038    1.02085    0.25006   1.00
C3       0.24231    0.95751    0.21552   1.00
C3       0.26729    1.04252    0.21927   1.00
C3       0.25703    0.95738    0.28425   1.00
C3       0.23335    1.04259    0.28078   1.00
C2       0.25003    0.89482    0.24984   1.00
C2       0.25003    1.10518    0.24984   1.00
C3a      0.24247    0.91599    0.21532   1.00
C3       0.26710    1.08382    0.21924   1.00
C3       0.25722    0.91611    0.28414   1.00
C3a      0.23309    1.08403    0.28086   1.00
H1       0.23614    0.97294    0.18866   1.00
H1       0.28112    1.02750    0.19516   1.00
C5       0.23437    0.89410    0.17813   1.00
H1       0.28039    1.09933    0.19514   1.00
H1       0.26331    0.90056    0.31095   1.00
C5       0.21452    1.10535    0.31447   1.00
H1       0.21903    1.02747    0.30451   1.00
H1       0.26353    0.97230    0.31132   1.00
H2       0.23100    1.09837    0.34152   1.00
H2       0.21620    1.13747    0.31028   1.00
N1       0.17360    1.09395    0.31868   1.00
C6       0.16023    1.05810    0.32757   1.00
C6       0.14245    1.11757    0.31473   1.00
C6       0.12002    1.05873    0.32915   1.00
C6       0.10871    1.09656    0.32098   1.00
H3       0.17848    1.03281    0.33267   1.00
H3       0.14405    1.14831    0.30759   1.00
H3       0.10104    1.03436    0.33560   1.00
H3       0.07919    1.10758    0.31975   1.00
H2       0.23643    0.86228    0.18403   1.00
H2       0.20438    0.90001    0.16736   1.00
N1       0.26236    0.90523    0.14802   1.00
C6       0.28967    0.88078    0.12876   1.00
C6       0.26786    0.94285    0.13157   1.00
C6       0.31049    0.90277    0.10219   1.00
C6       0.29711    0.94091    0.10392   1.00
H3       0.29343    0.84992    0.13429   1.00
H3       0.25182    0.96876    0.13989   1.00
H3       0.33337    0.89205    0.08331   1.00
H3       0.30780    0.96505    0.08667   1.00
C4       0.02085    0.74994    0.25038   1.00
C4       -0.02085   0.75006    0.24962   1.00
C3       0.04249    0.71552    0.25769   1.00
C3       -0.04252   0.71927    0.23271   1.00
C3       0.04262    0.78425    0.24297   1.00
C3       -0.04259   0.78078    0.26665   1.00
C2       0.10518    0.74984    0.24997   1.00
C2       -0.10518   0.74984    0.24997   1.00
C3a      0.08401    0.71532    0.25753   1.00
C3       -0.08382   0.71924    0.23290   1.00
C3       0.08389    0.78414    0.24278   1.00
C3a      -0.08403   0.78086    0.26691   1.00
H1       0.02706    0.68866    0.26386   1.00
H1       -0.02750   0.69516    0.21888   1.00
C5       0.10590    0.67813    0.26563   1.00
H1       -0.09933   0.69514    0.21961   1.00
H1       0.09944    0.81095    0.23669   1.00
C5       -0.10535   0.81447    0.28548   1.00
H1       -0.02747   0.80451    0.28097   1.00
H1       0.02770    0.81132    0.23647   1.00
H2       -0.09837   0.84152    0.26900   1.00
H2       -0.13747   0.81028    0.28380   1.00
N1       -0.09395   0.81868    0.32640   1.00
C6       -0.05810   0.82757    0.33977   1.00
C6       -0.11757   0.81473    0.35755   1.00
C6       -0.05873   0.82915    0.37998   1.00
C6       -0.09656   0.82098    0.39129   1.00
H3       -0.03281   0.83267    0.32152   1.00
H3       -0.14831   0.80759    0.35595   1.00
H3       -0.03436   0.83560    0.39896   1.00
H3       -0.10758   0.81975    0.42081   1.00
H2       0.13772    0.68403    0.26357   1.00
H2       0.09999    0.66736    0.29562   1.00
N1       0.09477    0.64802    0.23764   1.00
C6       0.11922    0.62876    0.21033   1.00
C6       0.05715    0.63157    0.23214   1.00
C6       0.09723    0.60219    0.18951   1.00
C6       0.05909    0.60392    0.20289   1.00
H3       0.15008    0.63429    0.20657   1.00
H3       0.03124    0.63989    0.24818   1.00
H3       0.10795    0.58331    0.16663   1.00
H3       0.03495    0.58667    0.19220   1.00
C4       0.47915    0.74994    0.24962   1.00
C4       0.52085    0.75006    0.25038   1.00
C3       0.45751    0.71552    0.24231   1.00
C3       0.54252    0.71927    0.26729   1.00
C3       0.45738    0.78425    0.25703   1.00
C3       0.54259    0.78078    0.23335   1.00
C2       0.39482    0.74984    0.25003   1.00
C2       0.60518    0.74984    0.25003   1.00
C3a      0.41599    0.71532    0.24247   1.00
C3       0.58382    0.71924    0.26710   1.00
C3       0.41611    0.78414    0.25722   1.00
C3a      0.58403    0.78086    0.23309   1.00
H1       0.47294    0.68866    0.23614   1.00
H1       0.52750    0.69516    0.28112   1.00
C5       0.39410    0.67813    0.23437   1.00
H1       0.59933    0.69514    0.28039   1.00
H1       0.40056    0.81095    0.26331   1.00
C5       0.60535    0.81447    0.21452   1.00
H1       0.52747    0.80451    0.21903   1.00
H1       0.47230    0.81132    0.26353   1.00
H2       0.59837    0.84152    0.23100   1.00
H2       0.63747    0.81028    0.21620   1.00
N1       0.59395    0.81868    0.17360   1.00
C6       0.55810    0.82757    0.16023   1.00
C6       0.61757    0.81473    0.14245   1.00
C6       0.55873    0.82915    0.12002   1.00
C6       0.59656    0.82098    0.10871   1.00
H3       0.53281    0.83267    0.17848   1.00
H3       0.64831    0.80759    0.14405   1.00
H3       0.53436    0.83560    0.10104   1.00
H3       0.60758    0.81975    0.07919   1.00
H2       0.36228    0.68403    0.23643   1.00
H2       0.40001    0.66736    0.20438   1.00
N1       0.40523    0.64802    0.26236   1.00
C6       0.38078    0.62876    0.28967   1.00
C6       0.44285    0.63157    0.26786   1.00
C6       0.40277    0.60219    0.31049   1.00
C6       0.44091    0.60392    0.29711   1.00
H3       0.34992    0.63429    0.29343   1.00
H3       0.46876    0.63989    0.25182   1.00
H3       0.39205    0.58331    0.33337   1.00
H3       0.46505    0.58667    0.30780   1.00
C4       0.25038    0.52085    0.24994   1.00
C4       0.24962    0.47915    0.25006   1.00
C3       0.25769    0.54249    0.21552   1.00
C3       0.23271    0.45748    0.21927   1.00
C3       0.24297    0.54262    0.28425   1.00
C3       0.26665    0.45741    0.28078   1.00
C2       0.24997    0.60518    0.24984   1.00
C2       0.24997    0.39482    0.24984   1.00
C3a      0.25753    0.58401    0.21532   1.00
C3       0.23290    0.41618    0.21924   1.00
C3       0.24278    0.58389    0.28414   1.00
C3a      0.26691    0.41597    0.28086   1.00
H1       0.26386    0.52706    0.18866   1.00
H1       0.21888    0.47250    0.19516   1.00
C5       0.26563    0.60590    0.17813   1.00
H1       0.21961    0.40067    0.19514   1.00
H1       0.23669    0.59944    0.31095   1.00
C5       0.28548    0.39465    0.31447   1.00
H1       0.28097    0.47253    0.30451   1.00
H1       0.23647    0.52770    0.31132   1.00
H2       0.26900    0.40163    0.34152   1.00
H2       0.28380    0.36253    0.31028   1.00
N1       0.32640    0.40605    0.31868   1.00
C6       0.33977    0.44190    0.32757   1.00
C6       0.35755    0.38243    0.31473   1.00
C6       0.37998    0.44127    0.32915   1.00
C6       0.39129    0.40344    0.32098   1.00
H3       0.32152    0.46719    0.33267   1.00
H3       0.35595    0.35169    0.30759   1.00
H3       0.39896    0.46564    0.33560   1.00
H3       0.42081    0.39242    0.31975   1.00
H2       0.26357    0.63772    0.18403   1.00
H2       0.29562    0.59999    0.16736   1.00
N1       0.23764    0.59477    0.14802   1.00
C6       0.21033    0.61922    0.12876   1.00
C6       0.23214    0.55715    0.13157   1.00
C6       0.18951    0.59723    0.10219   1.00
C6       0.20289    0.55909    0.10392   1.00
H3       0.20657    0.65008    0.13429   1.00
H3       0.24818    0.53124    0.13989   1.00
H3       0.16663    0.60795    0.08331   1.00
H3       0.19220    0.53495    0.08667   1.00
C4       0.24994    0.75038    0.02085   1.00
C4       0.25006    0.74962    -0.02085   1.00
C3       0.21552    0.75769    0.04249   1.00
C3       0.21927    0.73271    -0.04252   1.00
C3       0.28425    0.74297    0.04262   1.00
C3       0.28078    0.76665    -0.04259   1.00
C2       0.24984    0.74997    0.10518   1.00
C2       0.24984    0.74997    -0.10518   1.00
C3a      0.21532    0.75753    0.08401   1.00
C3       0.21924    0.73290    -0.08382   1.00
C3       0.28414    0.74278    0.08389   1.00
C3a      0.28086    0.76691    -0.08403   1.00
H1       0.18866    0.76386    0.02706   1.00
H1       0.19516    0.71888    -0.02750   1.00
C5       0.17813    0.76563    0.10590   1.00
H1       0.19514    0.71961    -0.09933   1.00
H1       0.31095    0.73669    0.09944   1.00
C5       0.31447    0.78548    -0.10535   1.00
H1       0.30451    0.78097    -0.02747   1.00
H1       0.31132    0.73647    0.02770   1.00
H2       0.34152    0.76900    -0.09837   1.00
H2       0.31028    0.78380    -0.13747   1.00
N1       0.31868    0.82640    -0.09395   1.00
C6       0.32757    0.83977    -0.05810   1.00
C6       0.31473    0.85755    -0.11757   1.00
C6       0.32915    0.87998    -0.05873   1.00
C6       0.32098    0.89129    -0.09656   1.00
H3       0.33267    0.82152    -0.03281   1.00
H3       0.30759    0.85595    -0.14831   1.00
H3       0.33560    0.89896    -0.03436   1.00
H3       0.31975    0.92081    -0.10758   1.00
H2       0.18403    0.76357    0.13772   1.00
H2       0.16736    0.79562    0.09999   1.00
N1       0.14802    0.73764    0.09477   1.00
C6       0.12876    0.71033    0.11922   1.00
C6       0.13157    0.73214    0.05715   1.00
C6       0.10219    0.68951    0.09723   1.00
C6       0.10392    0.70289    0.05909   1.00
H3       0.13429    0.70657    0.15008   1.00
H3       0.13989    0.74818    0.03124   1.00
H3       0.08331    0.66663    0.10795   1.00
H3       0.08667    0.69220    0.03495   1.00
C4       0.74994    0.24962    0.47915   1.00
C4       0.75006    0.25038    0.52085   1.00
C3       0.71552    0.24231    0.45751   1.00
C3       0.71927    0.26729    0.54252   1.00
C3       0.78425    0.25703    0.45738   1.00
C3       0.78078    0.23335    0.54259   1.00
C2       0.74984    0.25003    0.39482   1.00
C2       0.74984    0.25003    0.60518   1.00
C3a      0.71532    0.24247    0.41599   1.00
C3       0.71924    0.26710    0.58382   1.00
C3       0.78414    0.25722    0.41611   1.00
C3a      0.78086    0.23309    0.58403   1.00
H1       0.68866    0.23614    0.47294   1.00
H1       0.69516    0.28112    0.52750   1.00
C5       0.67813    0.23437    0.39410   1.00
H1       0.69514    0.28039    0.59933   1.00
H1       0.81095    0.26331    0.40056   1.00
C5       0.81447    0.21452    0.60535   1.00
H1       0.80451    0.21903    0.52747   1.00
H1       0.81132    0.26353    0.47230   1.00
H2       0.84152    0.23100    0.59837   1.00
H2       0.81028    0.21620    0.63747   1.00
N1       0.81868    0.17360    0.59395   1.00
C6       0.82757    0.16023    0.55810   1.00
C6       0.81473    0.14245    0.61757   1.00
C6       0.82915    0.12002    0.55873   1.00
C6       0.82098    0.10871    0.59656   1.00
H3       0.83267    0.17848    0.53281   1.00
H3       0.80759    0.14405    0.64831   1.00
H3       0.83560    0.10104    0.53436   1.00
H3       0.81975    0.07919    0.60758   1.00
H2       0.68403    0.23643    0.36228   1.00
H2       0.66736    0.20438    0.40001   1.00
N1       0.64802    0.26236    0.40523   1.00
C6       0.62876    0.28967    0.38078   1.00
C6       0.63157    0.26786    0.44285   1.00
C6       0.60219    0.31049    0.40277   1.00
C6       0.60392    0.29711    0.44091   1.00
H3       0.63429    0.29343    0.34992   1.00
H3       0.63989    0.25182    0.46876   1.00
H3       0.58331    0.33337    0.39205   1.00
H3       0.58667    0.30780    0.46505   1.00
C4       0.74962    0.47915    0.24994   1.00
C4       0.75038    0.52085    0.25006   1.00
C3       0.74231    0.45751    0.21552   1.00
C3       0.76729    0.54252    0.21927   1.00
C3       0.75703    0.45738    0.28425   1.00
C3       0.73335    0.54259    0.28078   1.00
C2       0.75003    0.39482    0.24984   1.00
C2       0.75003    0.60518    0.24984   1.00
C3a      0.74247    0.41599    0.21532   1.00
C3       0.76710    0.58382    0.21924   1.00
C3       0.75722    0.41611    0.28414   1.00
C3a      0.73309    0.58403    0.28086   1.00
H1       0.73614    0.47294    0.18866   1.00
H1       0.78112    0.52750    0.19516   1.00
C5       0.73437    0.39410    0.17813   1.00
H1       0.78039    0.59933    0.19514   1.00
H1       0.76331    0.40056    0.31095   1.00
C5       0.71452    0.60535    0.31447   1.00
H1       0.71903    0.52747    0.30451   1.00
H1       0.76353    0.47230    0.31132   1.00
H2       0.73100    0.59837    0.34152   1.00
H2       0.71620    0.63747    0.31028   1.00
N1       0.67360    0.59395    0.31868   1.00
C6       0.66023    0.55810    0.32757   1.00
C6       0.64245    0.61757    0.31473   1.00
C6       0.62002    0.55873    0.32915   1.00
C6       0.60871    0.59656    0.32098   1.00
H3       0.67848    0.53281    0.33267   1.00
H3       0.64405    0.64831    0.30759   1.00
H3       0.60104    0.53436    0.33560   1.00
H3       0.57919    0.60758    0.31975   1.00
H2       0.73643    0.36228    0.18403   1.00
H2       0.70438    0.40001    0.16736   1.00
N1       0.76236    0.40523    0.14802   1.00
C6       0.78967    0.38078    0.12876   1.00
C6       0.76786    0.44285    0.13157   1.00
C6       0.81049    0.40277    0.10219   1.00
C6       0.79711    0.44091    0.10392   1.00
H3       0.79343    0.34992    0.13429   1.00
H3       0.75182    0.46876    0.13989   1.00
H3       0.83337    0.39205    0.08331   1.00
H3       0.80780    0.46505    0.08667   1.00
C4       0.52085    0.24994    0.25038   1.00
C4       0.47915    0.25006    0.24962   1.00
C3       0.54249    0.21552    0.25769   1.00
C3       0.45748    0.21927    0.23271   1.00
C3       0.54262    0.28425    0.24297   1.00
C3       0.45741    0.28078    0.26665   1.00
C2       0.60518    0.24984    0.24997   1.00
C2       0.39482    0.24984    0.24997   1.00
C3a      0.58401    0.21532    0.25753   1.00
C3       0.41618    0.21924    0.23290   1.00
C3       0.58389    0.28414    0.24278   1.00
C3a      0.41597    0.28086    0.26691   1.00
H1       0.52706    0.18866    0.26386   1.00
H1       0.47250    0.19516    0.21888   1.00
C5       0.60590    0.17813    0.26563   1.00
H1       0.40067    0.19514    0.21961   1.00
H1       0.59944    0.31095    0.23669   1.00
C5       0.39465    0.31447    0.28548   1.00
H1       0.47253    0.30451    0.28097   1.00
H1       0.52770    0.31132    0.23647   1.00
H2       0.40163    0.34152    0.26900   1.00
H2       0.36253    0.31028    0.28380   1.00
N1       0.40605    0.31868    0.32640   1.00
C6       0.44190    0.32757    0.33977   1.00
C6       0.38243    0.31473    0.35755   1.00
C6       0.44127    0.32915    0.37998   1.00
C6       0.40344    0.32098    0.39129   1.00
H3       0.46719    0.33267    0.32152   1.00
H3       0.35169    0.30759    0.35595   1.00
H3       0.46564    0.33560    0.39896   1.00
H3       0.39242    0.31975    0.42081   1.00
H2       0.63772    0.18403    0.26357   1.00
H2       0.59999    0.16736    0.29562   1.00
N1       0.59477    0.14802    0.23764   1.00
C6       0.61922    0.12876    0.21033   1.00
C6       0.55715    0.13157    0.23214   1.00
C6       0.59723    0.10219    0.18951   1.00
C6       0.55909    0.10392    0.20289   1.00
H3       0.65008    0.13429    0.20657   1.00
H3       0.53124    0.13989    0.24818   1.00
H3       0.60795    0.08331    0.16663   1.00
H3       0.53495    0.08667    0.19220   1.00
C4       0.97915    0.24994    0.24962   1.00
C4       1.02085    0.25006    0.25038   1.00
C3       0.95751    0.21552    0.24231   1.00
C3       1.04252    0.21927    0.26729   1.00
C3       0.95738    0.28425    0.25703   1.00
C3       1.04259    0.28078    0.23335   1.00
C2       0.89482    0.24984    0.25003   1.00
C2       1.10518    0.24984    0.25003   1.00
C3a      0.91599    0.21532    0.24247   1.00
C3       1.08382    0.21924    0.26710   1.00
C3       0.91611    0.28414    0.25722   1.00
C3a      1.08403    0.28086    0.23309   1.00
H1       0.97294    0.18866    0.23614   1.00
H1       1.02750    0.19516    0.28112   1.00
C5       0.89410    0.17813    0.23437   1.00
H1       1.09933    0.19514    0.28039   1.00
H1       0.90056    0.31095    0.26331   1.00
C5       1.10535    0.31447    0.21452   1.00
H1       1.02747    0.30451    0.21903   1.00
H1       0.97230    0.31132    0.26353   1.00
H2       1.09837    0.34152    0.23100   1.00
H2       1.13747    0.31028    0.21620   1.00
N1       1.09395    0.31868    0.17360   1.00
C6       1.05810    0.32757    0.16023   1.00
C6       1.11757    0.31473    0.14245   1.00
C6       1.05873    0.32915    0.12002   1.00
C6       1.09656    0.32098    0.10871   1.00
H3       1.03281    0.33267    0.17848   1.00
H3       1.14831    0.30759    0.14405   1.00
H3       1.03436    0.33560    0.10104   1.00
H3       1.10758    0.31975    0.07919   1.00
H2       0.86228    0.18403    0.23643   1.00
H2       0.90001    0.16736    0.20438   1.00
N1       0.90523    0.14802    0.26236   1.00
C6       0.88078    0.12876    0.28967   1.00
C6       0.94285    0.13157    0.26786   1.00
C6       0.90277    0.10219    0.31049   1.00
C6       0.94091    0.10392    0.29711   1.00
H3       0.84992    0.13429    0.29343   1.00
H3       0.96876    0.13989    0.25182   1.00
H3       0.89205    0.08331    0.33337   1.00
H3       0.96505    0.08667    0.30780   1.00
C4       0.75038    0.02085    0.24994   1.00
C4       0.74962    -0.02085   0.25006   1.00
C3       0.75769    0.04249    0.21552   1.00
C3       0.73271    -0.04252   0.21927   1.00
C3       0.74297    0.04262    0.28425   1.00
C3       0.76665    -0.04259   0.28078   1.00
C2       0.74997    0.10518    0.24984   1.00
C2       0.74997    -0.10518   0.24984   1.00
C3a      0.75753    0.08401    0.21532   1.00
C3       0.73290    -0.08382   0.21924   1.00
C3       0.74278    0.08389    0.28414   1.00
C3a      0.76691    -0.08403   0.28086   1.00
H1       0.76386    0.02706    0.18866   1.00
H1       0.71888    -0.02750   0.19516   1.00
C5       0.76563    0.10590    0.17813   1.00
H1       0.71961    -0.09933   0.19514   1.00
H1       0.73669    0.09944    0.31095   1.00
C5       0.78548    -0.10535   0.31447   1.00
H1       0.78097    -0.02747   0.30451   1.00
H1       0.73647    0.02770    0.31132   1.00
H2       0.76900    -0.09837   0.34152   1.00
H2       0.78380    -0.13747   0.31028   1.00
N1       0.82640    -0.09395   0.31868   1.00
C6       0.83977    -0.05810   0.32757   1.00
C6       0.85755    -0.11757   0.31473   1.00
C6       0.87998    -0.05873   0.32915   1.00
C6       0.89129    -0.09656   0.32098   1.00
H3       0.82152    -0.03281   0.33267   1.00
H3       0.85595    -0.14831   0.30759   1.00
H3       0.89896    -0.03436   0.33560   1.00
H3       0.92081    -0.10758   0.31975   1.00
H2       0.76357    0.13772    0.18403   1.00
H2       0.79562    0.09999    0.16736   1.00
N1       0.73764    0.09477    0.14802   1.00
C6       0.71033    0.11922    0.12876   1.00
C6       0.73214    0.05715    0.13157   1.00
C6       0.68951    0.09723    0.10219   1.00
C6       0.70289    0.05909    0.10392   1.00
H3       0.70657    0.15008    0.13429   1.00
H3       0.74818    0.03124    0.13989   1.00
H3       0.66663    0.10795    0.08331   1.00
H3       0.69220    0.03495    0.08667   1.00
C4       0.74994    0.25038    0.02085   1.00
C4       0.75006    0.24962    -0.02085   1.00
C3       0.71552    0.25769    0.04249   1.00
C3       0.71927    0.23271    -0.04252   1.00
C3       0.78425    0.24297    0.04262   1.00
C3       0.78078    0.26665    -0.04259   1.00
C2       0.74984    0.24997    0.10518   1.00
C2       0.74984    0.24997    -0.10518   1.00
C3a      0.71532    0.25753    0.08401   1.00
C3       0.71924    0.23290    -0.08382   1.00
C3       0.78414    0.24278    0.08389   1.00
C3a      0.78086    0.26691    -0.08403   1.00
H1       0.68866    0.26386    0.02706   1.00
H1       0.69516    0.21888    -0.02750   1.00
C5       0.67813    0.26563    0.10590   1.00
H1       0.69514    0.21961    -0.09933   1.00
H1       0.81095    0.23669    0.09944   1.00
C5       0.81447    0.28548    -0.10535   1.00
H1       0.80451    0.28097    -0.02747   1.00
H1       0.81132    0.23647    0.02770   1.00
H2       0.84152    0.26900    -0.09837   1.00
H2       0.81028    0.28380    -0.13747   1.00
N1       0.81868    0.32640    -0.09395   1.00
C6       0.82757    0.33977    -0.05810   1.00
C6       0.81473    0.35755    -0.11757   1.00
C6       0.82915    0.37998    -0.05873   1.00
C6       0.82098    0.39129    -0.09656   1.00
H3       0.83267    0.32152    -0.03281   1.00
H3       0.80759    0.35595    -0.14831   1.00
H3       0.83560    0.39896    -0.03436   1.00
H3       0.81975    0.42081    -0.10758   1.00
H2       0.68403    0.26357    0.13772   1.00
H2       0.66736    0.29562    0.09999   1.00
N1       0.64802    0.23764    0.09477   1.00
C6       0.62876    0.21033    0.11922   1.00
C6       0.63157    0.23214    0.05715   1.00
C6       0.60219    0.18951    0.09723   1.00
C6       0.60392    0.20289    0.05909   1.00
H3       0.63429    0.20657    0.15008   1.00
H3       0.63989    0.24818    0.03124   1.00
H3       0.58331    0.16663    0.10795   1.00
H3       0.58667    0.19220    0.03495   1.00
