data_IRMOF10_SG202_Ligand11_label_i.

_audit_creation_method             'generated by an auxiliary program of Tobunporous'

_symmetry_space_group_name_H-M     'P 1'
_symmetry_Int_Tables_number        1
_symmetry_cell_setting             triclinic

_cell_length_a                    34.2800
_cell_length_b                    34.2800
_cell_length_c                    34.2800
_cell_angle_alpha                 90.0000
_cell_angle_beta                  90.0000
_cell_angle_gamma                 90.0000

loop_
_atom_site_label
_atom_site_fract_x
_atom_site_fract_y
_atom_site_fract_z
_atom_site_occupancy
O1       0.75000    0.75000    0.75000   1.00
Zn1      0.71720    0.78280    0.78280   1.00
Zn1      0.78280    0.71720    0.78280   1.00
Zn1      0.78280    0.78280    0.71720   1.00
Zn1      0.71720    0.71720    0.71720   1.00
O2       0.72650    0.77350    0.83820   1.00
O2       0.72650    0.83820    0.77350   1.00
O2       0.66180    0.77350    0.77350   1.00
O2       0.77350    0.72650    0.83820   1.00
O2       0.83820    0.72650    0.77350   1.00
O2       0.77350    0.66180    0.77350   1.00
O2       0.77350    0.83820    0.72650   1.00
O2       0.83820    0.77350    0.72650   1.00
O2       0.77350    0.77350    0.66180   1.00
O2       0.66180    0.72650    0.72650   1.00
O2       0.72650    0.66180    0.72650   1.00
O2       0.72650    0.72650    0.66180   1.00
C1       0.75000    0.75000    0.85520   1.00
C1       0.75000    0.85520    0.75000   1.00
C1       0.64480    0.75000    0.75000   1.00
C1       0.85520    0.75000    0.75000   1.00
C1       0.75000    0.64480    0.75000   1.00
C1       0.75000    0.75000    0.64480   1.00
O1       0.25000    0.25000    0.75000   1.00
Zn1      0.21720    0.28280    0.78280   1.00
Zn1      0.28280    0.21720    0.78280   1.00
Zn1      0.28280    0.28280    0.71720   1.00
Zn1      0.21720    0.21720    0.71720   1.00
O2       0.22650    0.27350    0.83820   1.00
O2       0.22650    0.33820    0.77350   1.00
O2       0.16180    0.27350    0.77350   1.00
O2       0.27350    0.22650    0.83820   1.00
O2       0.33820    0.22650    0.77350   1.00
O2       0.27350    0.16180    0.77350   1.00
O2       0.27350    0.33820    0.72650   1.00
O2       0.33820    0.27350    0.72650   1.00
O2       0.27350    0.27350    0.66180   1.00
O2       0.16180    0.22650    0.72650   1.00
O2       0.22650    0.16180    0.72650   1.00
O2       0.22650    0.22650    0.66180   1.00
C1       0.25000    0.25000    0.85520   1.00
C1       0.25000    0.35520    0.75000   1.00
C1       0.14480    0.25000    0.75000   1.00
C1       0.35520    0.25000    0.75000   1.00
C1       0.25000    0.14480    0.75000   1.00
C1       0.25000    0.25000    0.64480   1.00
O1       0.25000    0.75000    0.25000   1.00
Zn1      0.21720    0.78280    0.28280   1.00
Zn1      0.28280    0.71720    0.28280   1.00
Zn1      0.28280    0.78280    0.21720   1.00
Zn1      0.21720    0.71720    0.21720   1.00
O2       0.22650    0.77350    0.33820   1.00
O2       0.22650    0.83820    0.27350   1.00
O2       0.16180    0.77350    0.27350   1.00
O2       0.27350    0.72650    0.33820   1.00
O2       0.33820    0.72650    0.27350   1.00
O2       0.27350    0.66180    0.27350   1.00
O2       0.27350    0.83820    0.22650   1.00
O2       0.33820    0.77350    0.22650   1.00
O2       0.27350    0.77350    0.16180   1.00
O2       0.16180    0.72650    0.22650   1.00
O2       0.22650    0.66180    0.22650   1.00
O2       0.22650    0.72650    0.16180   1.00
C1       0.25000    0.75000    0.35520   1.00
C1       0.25000    0.85520    0.25000   1.00
C1       0.14480    0.75000    0.25000   1.00
C1       0.35520    0.75000    0.25000   1.00
C1       0.25000    0.64480    0.25000   1.00
C1       0.25000    0.75000    0.14480   1.00
O1       0.75000    0.25000    0.25000   1.00
Zn1      0.71720    0.28280    0.28280   1.00
Zn1      0.78280    0.21720    0.28280   1.00
Zn1      0.78280    0.28280    0.21720   1.00
Zn1      0.71720    0.21720    0.21720   1.00
O2       0.72650    0.27350    0.33820   1.00
O2       0.72650    0.33820    0.27350   1.00
O2       0.66180    0.27350    0.27350   1.00
O2       0.77350    0.22650    0.33820   1.00
O2       0.83820    0.22650    0.27350   1.00
O2       0.77350    0.16180    0.27350   1.00
O2       0.77350    0.33820    0.22650   1.00
O2       0.83820    0.27350    0.22650   1.00
O2       0.77350    0.27350    0.16180   1.00
O2       0.66180    0.22650    0.22650   1.00
O2       0.72650    0.16180    0.22650   1.00
O2       0.72650    0.22650    0.16180   1.00
C1       0.75000    0.25000    0.35520   1.00
C1       0.75000    0.35520    0.25000   1.00
C1       0.64480    0.25000    0.25000   1.00
C1       0.85520    0.25000    0.25000   1.00
C1       0.75000    0.14480    0.25000   1.00
C1       0.75000    0.25000    0.14480   1.00
O1       0.25000    0.25000    0.25000   1.00
Zn1      0.28280    0.21720    0.21720   1.00
Zn1      0.21720    0.28280    0.21720   1.00
Zn1      0.21720    0.21720    0.28280   1.00
Zn1      0.28280    0.28280    0.28280   1.00
O2       0.27350    0.22650    0.16180   1.00
O2       0.27350    0.16180    0.22650   1.00
O2       0.33820    0.22650    0.22650   1.00
O2       0.22650    0.27350    0.16180   1.00
O2       0.16180    0.27350    0.22650   1.00
O2       0.22650    0.33820    0.22650   1.00
O2       0.22650    0.16180    0.27350   1.00
O2       0.16180    0.22650    0.27350   1.00
O2       0.22650    0.22650    0.33820   1.00
O2       0.33820    0.27350    0.27350   1.00
O2       0.27350    0.33820    0.27350   1.00
O2       0.27350    0.27350    0.33820   1.00
C1       0.25000    0.25000    0.14480   1.00
C1       0.25000    0.14480    0.25000   1.00
C1       0.35520    0.25000    0.25000   1.00
C1       0.14480    0.25000    0.25000   1.00
C1       0.25000    0.35520    0.25000   1.00
C1       0.25000    0.25000    0.35520   1.00
O1       0.75000    0.75000    0.25000   1.00
Zn1      0.78280    0.71720    0.21720   1.00
Zn1      0.71720    0.78280    0.21720   1.00
Zn1      0.71720    0.71720    0.28280   1.00
Zn1      0.78280    0.78280    0.28280   1.00
O2       0.77350    0.72650    0.16180   1.00
O2       0.77350    0.66180    0.22650   1.00
O2       0.83820    0.72650    0.22650   1.00
O2       0.72650    0.77350    0.16180   1.00
O2       0.66180    0.77350    0.22650   1.00
O2       0.72650    0.83820    0.22650   1.00
O2       0.72650    0.66180    0.27350   1.00
O2       0.66180    0.72650    0.27350   1.00
O2       0.72650    0.72650    0.33820   1.00
O2       0.83820    0.77350    0.27350   1.00
O2       0.77350    0.83820    0.27350   1.00
O2       0.77350    0.77350    0.33820   1.00
C1       0.75000    0.75000    0.14480   1.00
C1       0.75000    0.64480    0.25000   1.00
C1       0.85520    0.75000    0.25000   1.00
C1       0.64480    0.75000    0.25000   1.00
C1       0.75000    0.85520    0.25000   1.00
C1       0.75000    0.75000    0.35520   1.00
O1       0.75000    0.25000    0.75000   1.00
Zn1      0.78280    0.21720    0.71720   1.00
Zn1      0.71720    0.28280    0.71720   1.00
Zn1      0.71720    0.21720    0.78280   1.00
Zn1      0.78280    0.28280    0.78280   1.00
O2       0.77350    0.22650    0.66180   1.00
O2       0.77350    0.16180    0.72650   1.00
O2       0.83820    0.22650    0.72650   1.00
O2       0.72650    0.27350    0.66180   1.00
O2       0.66180    0.27350    0.72650   1.00
O2       0.72650    0.33820    0.72650   1.00
O2       0.72650    0.16180    0.77350   1.00
O2       0.66180    0.22650    0.77350   1.00
O2       0.72650    0.22650    0.83820   1.00
O2       0.83820    0.27350    0.77350   1.00
O2       0.77350    0.33820    0.77350   1.00
O2       0.77350    0.27350    0.83820   1.00
C1       0.75000    0.25000    0.64480   1.00
C1       0.75000    0.14480    0.75000   1.00
C1       0.85520    0.25000    0.75000   1.00
C1       0.64480    0.25000    0.75000   1.00
C1       0.75000    0.35520    0.75000   1.00
C1       0.75000    0.25000    0.85520   1.00
O1       0.25000    0.75000    0.75000   1.00
Zn1      0.28280    0.71720    0.71720   1.00
Zn1      0.21720    0.78280    0.71720   1.00
Zn1      0.21720    0.71720    0.78280   1.00
Zn1      0.28280    0.78280    0.78280   1.00
O2       0.27350    0.72650    0.66180   1.00
O2       0.27350    0.66180    0.72650   1.00
O2       0.33820    0.72650    0.72650   1.00
O2       0.22650    0.77350    0.66180   1.00
O2       0.16180    0.77350    0.72650   1.00
O2       0.22650    0.83820    0.72650   1.00
O2       0.22650    0.66180    0.77350   1.00
O2       0.16180    0.72650    0.77350   1.00
O2       0.22650    0.72650    0.83820   1.00
O2       0.33820    0.77350    0.77350   1.00
O2       0.27350    0.83820    0.77350   1.00
O2       0.27350    0.77350    0.83820   1.00
C1       0.25000    0.75000    0.64480   1.00
C1       0.25000    0.64480    0.75000   1.00
C1       0.35520    0.75000    0.75000   1.00
C1       0.14480    0.75000    0.75000   1.00
C1       0.25000    0.85520    0.75000   1.00
C1       0.25000    0.75000    0.85520   1.00
C4       0.75015    0.74988    0.97915   1.00
C4       0.74985    0.75012    1.02085   1.00
C3a      0.78573    0.75058    0.95746   1.00
C3       0.75682    0.71570    1.04232   1.00
C3       0.71505    0.74880    0.95768   1.00
C3a      0.74241    0.78492    1.04254   1.00
C2       0.74995    0.74993    0.89488   1.00
C2       0.74995    0.74994    1.10512   1.00
C3       0.78505    0.75068    0.91595   1.00
C3       0.75697    0.71568    1.08363   1.00
C3       0.71499    0.74895    0.91637   1.00
C3       0.74265    0.78428    1.08405   1.00
C5       0.82494    0.75187    0.97772   1.00
H1       0.76257    0.68871    1.02691   1.00
H1       0.81216    0.75142    0.89979   1.00
H1       0.76267    0.68869    1.09901   1.00
H1       0.68742    0.74833    0.90099   1.00
H1       0.73718    0.81084    1.10021   1.00
C5       0.73470    0.82339    1.02228   1.00
H1       0.68746    0.74824    0.97309   1.00
H2       0.74080    0.84791    1.04256   1.00
H2       0.75501    0.82716    0.99731   1.00
H2       0.84743    0.76341    0.95744   1.00
H2       0.82397    0.77250    1.00269   1.00
N1       0.69432    0.82566    1.00857   1.00
C6       0.66227    0.82692    1.03073   1.00
C6       0.68251    0.82799    0.97154   1.00
C6       0.62954    0.82956    1.00759   1.00
C6       0.64241    0.83025    0.96995   1.00
H3       0.66248    0.82565    1.06197   1.00
H3       0.70183    0.82774    0.94700   1.00
H3       0.59963    0.83087    1.01713   1.00
H3       0.62455    0.83215    0.94425   1.00
N1       0.83638    0.71308    0.99143   1.00
C6       0.84134    0.70211    1.02846   1.00
C6       0.84492    0.68216    0.96927   1.00
C6       0.85270    0.66359    1.03005   1.00
C6       0.85497    0.65090    0.99241   1.00
H3       0.83669    0.72086    1.05300   1.00
H3       0.84364    0.68207    0.93803   1.00
H3       0.85864    0.64663    1.05575   1.00
H3       0.86309    0.62208    0.98287   1.00
C4       0.74988    0.97915    0.75015   1.00
C4       0.75012    1.02085    0.74985   1.00
C3a      0.75058    0.95746    0.78573   1.00
C3       0.71570    1.04232    0.75682   1.00
C3       0.74880    0.95768    0.71505   1.00
C3a      0.78492    1.04254    0.74241   1.00
C2       0.74993    0.89488    0.74995   1.00
C2       0.74994    1.10512    0.74995   1.00
C3       0.75068    0.91595    0.78505   1.00
C3       0.71568    1.08363    0.75697   1.00
C3       0.74895    0.91637    0.71499   1.00
C3       0.78428    1.08405    0.74265   1.00
C5       0.75187    0.97772    0.82494   1.00
H1       0.68871    1.02691    0.76257   1.00
H1       0.75142    0.89979    0.81216   1.00
H1       0.68869    1.09901    0.76267   1.00
H1       0.74833    0.90099    0.68742   1.00
H1       0.81084    1.10021    0.73718   1.00
C5       0.82339    1.02228    0.73470   1.00
H1       0.74824    0.97309    0.68746   1.00
H2       0.84791    1.04256    0.74080   1.00
H2       0.82716    0.99731    0.75501   1.00
H2       0.76341    0.95744    0.84743   1.00
H2       0.77250    1.00269    0.82397   1.00
N1       0.82566    1.00857    0.69432   1.00
C6       0.82692    1.03073    0.66227   1.00
C6       0.82799    0.97154    0.68251   1.00
C6       0.82956    1.00759    0.62954   1.00
C6       0.83025    0.96995    0.64241   1.00
H3       0.82565    1.06197    0.66248   1.00
H3       0.82774    0.94700    0.70183   1.00
H3       0.83087    1.01713    0.59963   1.00
H3       0.83215    0.94425    0.62455   1.00
N1       0.71308    0.99143    0.83638   1.00
C6       0.70211    1.02846    0.84134   1.00
C6       0.68216    0.96927    0.84492   1.00
C6       0.66359    1.03005    0.85270   1.00
C6       0.65090    0.99241    0.85497   1.00
H3       0.72086    1.05300    0.83669   1.00
H3       0.68207    0.93803    0.84364   1.00
H3       0.64663    1.05575    0.85864   1.00
H3       0.62208    0.98287    0.86309   1.00
C4       0.52085    0.75015    0.75012   1.00
C4       0.47915    0.74985    0.74988   1.00
C3a      0.54254    0.78573    0.74942   1.00
C3       0.45768    0.75682    0.78430   1.00
C3       0.54232    0.71505    0.75120   1.00
C3a      0.45746    0.74241    0.71508   1.00
C2       0.60512    0.74995    0.75007   1.00
C2       0.39488    0.74995    0.75006   1.00
C3       0.58405    0.78505    0.74932   1.00
C3       0.41637    0.75697    0.78432   1.00
C3       0.58363    0.71499    0.75105   1.00
C3       0.41595    0.74265    0.71572   1.00
C5       0.52228    0.82494    0.74813   1.00
H1       0.47309    0.76257    0.81129   1.00
H1       0.60021    0.81216    0.74858   1.00
H1       0.40099    0.76267    0.81131   1.00
H1       0.59901    0.68742    0.75167   1.00
H1       0.39979    0.73718    0.68916   1.00
C5       0.47772    0.73470    0.67661   1.00
H1       0.52691    0.68746    0.75176   1.00
H2       0.45744    0.74080    0.65209   1.00
H2       0.50269    0.75501    0.67284   1.00
H2       0.54256    0.84743    0.73659   1.00
H2       0.49731    0.82397    0.72750   1.00
N1       0.49143    0.69432    0.67434   1.00
C6       0.46927    0.66227    0.67308   1.00
C6       0.52846    0.68251    0.67201   1.00
C6       0.49241    0.62954    0.67044   1.00
C6       0.53005    0.64241    0.66975   1.00
H3       0.43803    0.66248    0.67435   1.00
H3       0.55300    0.70183    0.67226   1.00
H3       0.48287    0.59963    0.66913   1.00
H3       0.55575    0.62455    0.66785   1.00
N1       0.50857    0.83638    0.78692   1.00
C6       0.47154    0.84134    0.79789   1.00
C6       0.53073    0.84492    0.81784   1.00
C6       0.46995    0.85270    0.83641   1.00
C6       0.50759    0.85497    0.84910   1.00
H3       0.44700    0.83669    0.77914   1.00
H3       0.56197    0.84364    0.81793   1.00
H3       0.44425    0.85864    0.85337   1.00
H3       0.51713    0.86309    0.87792   1.00
C4       0.97915    0.75015    0.74988   1.00
C4       1.02085    0.74985    0.75012   1.00
C3a      0.95746    0.78573    0.75058   1.00
C3       1.04232    0.75682    0.71570   1.00
C3       0.95768    0.71505    0.74880   1.00
C3a      1.04254    0.74241    0.78492   1.00
C2       0.89488    0.74995    0.74993   1.00
C2       1.10512    0.74995    0.74994   1.00
C3       0.91595    0.78505    0.75068   1.00
C3       1.08363    0.75697    0.71568   1.00
C3       0.91637    0.71499    0.74895   1.00
C3       1.08405    0.74265    0.78428   1.00
C5       0.97772    0.82494    0.75187   1.00
H1       1.02691    0.76257    0.68871   1.00
H1       0.89979    0.81216    0.75142   1.00
H1       1.09901    0.76267    0.68869   1.00
H1       0.90099    0.68742    0.74833   1.00
H1       1.10021    0.73718    0.81084   1.00
C5       1.02228    0.73470    0.82339   1.00
H1       0.97309    0.68746    0.74824   1.00
H2       1.04256    0.74080    0.84791   1.00
H2       0.99731    0.75501    0.82716   1.00
H2       0.95744    0.84743    0.76341   1.00
H2       1.00269    0.82397    0.77250   1.00
N1       1.00857    0.69432    0.82566   1.00
C6       1.03073    0.66227    0.82692   1.00
C6       0.97154    0.68251    0.82799   1.00
C6       1.00759    0.62954    0.82956   1.00
C6       0.96995    0.64241    0.83025   1.00
H3       1.06197    0.66248    0.82565   1.00
H3       0.94700    0.70183    0.82774   1.00
H3       1.01713    0.59963    0.83087   1.00
H3       0.94425    0.62455    0.83215   1.00
N1       0.99143    0.83638    0.71308   1.00
C6       1.02846    0.84134    0.70211   1.00
C6       0.96927    0.84492    0.68216   1.00
C6       1.03005    0.85270    0.66359   1.00
C6       0.99241    0.85497    0.65090   1.00
H3       1.05300    0.83669    0.72086   1.00
H3       0.93803    0.84364    0.68207   1.00
H3       1.05575    0.85864    0.64663   1.00
H3       0.98287    0.86309    0.62208   1.00
C4       0.75012    0.52085    0.75015   1.00
C4       0.74988    0.47915    0.74985   1.00
C3a      0.74942    0.54254    0.78573   1.00
C3       0.78430    0.45768    0.75682   1.00
C3       0.75120    0.54232    0.71505   1.00
C3a      0.71508    0.45746    0.74241   1.00
C2       0.75007    0.60512    0.74995   1.00
C2       0.75006    0.39488    0.74995   1.00
C3       0.74932    0.58405    0.78505   1.00
C3       0.78432    0.41637    0.75697   1.00
C3       0.75105    0.58363    0.71499   1.00
C3       0.71572    0.41595    0.74265   1.00
C5       0.74813    0.52228    0.82494   1.00
H1       0.81129    0.47309    0.76257   1.00
H1       0.74858    0.60021    0.81216   1.00
H1       0.81131    0.40099    0.76267   1.00
H1       0.75167    0.59901    0.68742   1.00
H1       0.68916    0.39979    0.73718   1.00
C5       0.67661    0.47772    0.73470   1.00
H1       0.75176    0.52691    0.68746   1.00
H2       0.65209    0.45744    0.74080   1.00
H2       0.67284    0.50269    0.75501   1.00
H2       0.73659    0.54256    0.84743   1.00
H2       0.72750    0.49731    0.82397   1.00
N1       0.67434    0.49143    0.69432   1.00
C6       0.67308    0.46927    0.66227   1.00
C6       0.67201    0.52846    0.68251   1.00
C6       0.67044    0.49241    0.62954   1.00
C6       0.66975    0.53005    0.64241   1.00
H3       0.67435    0.43803    0.66248   1.00
H3       0.67226    0.55300    0.70183   1.00
H3       0.66913    0.48287    0.59963   1.00
H3       0.66785    0.55575    0.62455   1.00
N1       0.78692    0.50857    0.83638   1.00
C6       0.79789    0.47154    0.84134   1.00
C6       0.81784    0.53073    0.84492   1.00
C6       0.83641    0.46995    0.85270   1.00
C6       0.84910    0.50759    0.85497   1.00
H3       0.77914    0.44700    0.83669   1.00
H3       0.81793    0.56197    0.84364   1.00
H3       0.85337    0.44425    0.85864   1.00
H3       0.87792    0.51713    0.86309   1.00
C4       0.75015    0.75012    0.52085   1.00
C4       0.74985    0.74988    0.47915   1.00
C3a      0.78573    0.74942    0.54254   1.00
C3       0.75682    0.78430    0.45768   1.00
C3       0.71505    0.75120    0.54232   1.00
C3a      0.74241    0.71508    0.45746   1.00
C2       0.74995    0.75007    0.60512   1.00
C2       0.74995    0.75006    0.39488   1.00
C3       0.78505    0.74932    0.58405   1.00
C3       0.75697    0.78432    0.41637   1.00
C3       0.71499    0.75105    0.58363   1.00
C3       0.74265    0.71572    0.41595   1.00
C5       0.82494    0.74813    0.52228   1.00
H1       0.76257    0.81129    0.47309   1.00
H1       0.81216    0.74858    0.60021   1.00
H1       0.76267    0.81131    0.40099   1.00
H1       0.68742    0.75167    0.59901   1.00
H1       0.73718    0.68916    0.39979   1.00
C5       0.73470    0.67661    0.47772   1.00
H1       0.68746    0.75176    0.52691   1.00
H2       0.74080    0.65209    0.45744   1.00
H2       0.75501    0.67284    0.50269   1.00
H2       0.84743    0.73659    0.54256   1.00
H2       0.82397    0.72750    0.49731   1.00
N1       0.69432    0.67434    0.49143   1.00
C6       0.66227    0.67308    0.46927   1.00
C6       0.68251    0.67201    0.52846   1.00
C6       0.62954    0.67044    0.49241   1.00
C6       0.64241    0.66975    0.53005   1.00
H3       0.66248    0.67435    0.43803   1.00
H3       0.70183    0.67226    0.55300   1.00
H3       0.59963    0.66913    0.48287   1.00
H3       0.62455    0.66785    0.55575   1.00
N1       0.83638    0.78692    0.50857   1.00
C6       0.84134    0.79789    0.47154   1.00
C6       0.84492    0.81784    0.53073   1.00
C6       0.85270    0.83641    0.46995   1.00
C6       0.85497    0.84910    0.50759   1.00
H3       0.83669    0.77914    0.44700   1.00
H3       0.84364    0.81793    0.56197   1.00
H3       0.85864    0.85337    0.44425   1.00
H3       0.86309    0.87792    0.51713   1.00
C4       0.25015    0.24988    0.97915   1.00
C4       0.24985    0.25012    1.02085   1.00
C3a      0.28573    0.25058    0.95746   1.00
C3       0.25682    0.21570    1.04232   1.00
C3       0.21505    0.24880    0.95768   1.00
C3a      0.24241    0.28492    1.04254   1.00
C2       0.24995    0.24993    0.89488   1.00
C2       0.24995    0.24994    1.10512   1.00
C3       0.28505    0.25068    0.91595   1.00
C3       0.25697    0.21568    1.08363   1.00
C3       0.21499    0.24895    0.91637   1.00
C3       0.24265    0.28428    1.08405   1.00
C5       0.32494    0.25187    0.97772   1.00
H1       0.26257    0.18871    1.02691   1.00
H1       0.31216    0.25142    0.89979   1.00
H1       0.26267    0.18869    1.09901   1.00
H1       0.18742    0.24833    0.90099   1.00
H1       0.23718    0.31084    1.10021   1.00
C5       0.23470    0.32339    1.02228   1.00
H1       0.18746    0.24824    0.97309   1.00
H2       0.24080    0.34791    1.04256   1.00
H2       0.25501    0.32716    0.99731   1.00
H2       0.34743    0.26341    0.95744   1.00
H2       0.32397    0.27250    1.00269   1.00
N1       0.19432    0.32566    1.00857   1.00
C6       0.16227    0.32692    1.03073   1.00
C6       0.18251    0.32799    0.97154   1.00
C6       0.12954    0.32956    1.00759   1.00
C6       0.14241    0.33025    0.96995   1.00
H3       0.16248    0.32565    1.06197   1.00
H3       0.20183    0.32774    0.94700   1.00
H3       0.09963    0.33087    1.01713   1.00
H3       0.12455    0.33215    0.94425   1.00
N1       0.33638    0.21308    0.99143   1.00
C6       0.34134    0.20211    1.02846   1.00
C6       0.34492    0.18216    0.96927   1.00
C6       0.35270    0.16359    1.03005   1.00
C6       0.35497    0.15090    0.99241   1.00
H3       0.33669    0.22086    1.05300   1.00
H3       0.34364    0.18207    0.93803   1.00
H3       0.35864    0.14663    1.05575   1.00
H3       0.36309    0.12208    0.98287   1.00
C4       0.24988    0.47915    0.75015   1.00
C4       0.25012    0.52085    0.74985   1.00
C3a      0.25058    0.45746    0.78573   1.00
C3       0.21570    0.54232    0.75682   1.00
C3       0.24880    0.45768    0.71505   1.00
C3a      0.28492    0.54254    0.74241   1.00
C2       0.24993    0.39488    0.74995   1.00
C2       0.24994    0.60512    0.74995   1.00
C3       0.25068    0.41595    0.78505   1.00
C3       0.21568    0.58363    0.75697   1.00
C3       0.24895    0.41637    0.71499   1.00
C3       0.28428    0.58405    0.74265   1.00
C5       0.25187    0.47772    0.82494   1.00
H1       0.18871    0.52691    0.76257   1.00
H1       0.25142    0.39979    0.81216   1.00
H1       0.18869    0.59901    0.76267   1.00
H1       0.24833    0.40099    0.68742   1.00
H1       0.31084    0.60021    0.73718   1.00
C5       0.32339    0.52228    0.73470   1.00
H1       0.24824    0.47309    0.68746   1.00
H2       0.34791    0.54256    0.74080   1.00
H2       0.32716    0.49731    0.75501   1.00
H2       0.26341    0.45744    0.84743   1.00
H2       0.27250    0.50269    0.82397   1.00
N1       0.32566    0.50857    0.69432   1.00
C6       0.32692    0.53073    0.66227   1.00
C6       0.32799    0.47154    0.68251   1.00
C6       0.32956    0.50759    0.62954   1.00
C6       0.33025    0.46995    0.64241   1.00
H3       0.32565    0.56197    0.66248   1.00
H3       0.32774    0.44700    0.70183   1.00
H3       0.33087    0.51713    0.59963   1.00
H3       0.33215    0.44425    0.62455   1.00
N1       0.21308    0.49143    0.83638   1.00
C6       0.20211    0.52846    0.84134   1.00
C6       0.18216    0.46927    0.84492   1.00
C6       0.16359    0.53005    0.85270   1.00
C6       0.15090    0.49241    0.85497   1.00
H3       0.22086    0.55300    0.83669   1.00
H3       0.18207    0.43803    0.84364   1.00
H3       0.14663    0.55575    0.85864   1.00
H3       0.12208    0.48287    0.86309   1.00
C4       0.02085    0.25015    0.75012   1.00
C4       -0.02085   0.24985    0.74988   1.00
C3a      0.04254    0.28573    0.74942   1.00
C3       -0.04232   0.25682    0.78430   1.00
C3       0.04232    0.21505    0.75120   1.00
C3a      -0.04254   0.24241    0.71508   1.00
C2       0.10512    0.24995    0.75007   1.00
C2       -0.10512   0.24995    0.75006   1.00
C3       0.08405    0.28505    0.74932   1.00
C3       -0.08363   0.25697    0.78432   1.00
C3       0.08363    0.21499    0.75105   1.00
C3       -0.08405   0.24265    0.71572   1.00
C5       0.02228    0.32494    0.74813   1.00
H1       -0.02691   0.26257    0.81129   1.00
H1       0.10021    0.31216    0.74858   1.00
H1       -0.09901   0.26267    0.81131   1.00
H1       0.09901    0.18742    0.75167   1.00
H1       -0.10021   0.23718    0.68916   1.00
C5       -0.02228   0.23470    0.67661   1.00
H1       0.02691    0.18746    0.75176   1.00
H2       -0.04256   0.24080    0.65209   1.00
H2       0.00269    0.25501    0.67284   1.00
H2       0.04256    0.34743    0.73659   1.00
H2       -0.00269   0.32397    0.72750   1.00
N1       -0.00857   0.19432    0.67434   1.00
C6       -0.03073   0.16227    0.67308   1.00
C6       0.02846    0.18251    0.67201   1.00
C6       -0.00759   0.12954    0.67044   1.00
C6       0.03005    0.14241    0.66975   1.00
H3       -0.06197   0.16248    0.67435   1.00
H3       0.05300    0.20183    0.67226   1.00
H3       -0.01713   0.09963    0.66913   1.00
H3       0.05575    0.12455    0.66785   1.00
N1       0.00857    0.33638    0.78692   1.00
C6       -0.02846   0.34134    0.79789   1.00
C6       0.03073    0.34492    0.81784   1.00
C6       -0.03005   0.35270    0.83641   1.00
C6       0.00759    0.35497    0.84910   1.00
H3       -0.05300   0.33669    0.77914   1.00
H3       0.06197    0.34364    0.81793   1.00
H3       -0.05575   0.35864    0.85337   1.00
H3       0.01713    0.36309    0.87792   1.00
C4       0.47915    0.25015    0.74988   1.00
C4       0.52085    0.24985    0.75012   1.00
C3a      0.45746    0.28573    0.75058   1.00
C3       0.54232    0.25682    0.71570   1.00
C3       0.45768    0.21505    0.74880   1.00
C3a      0.54254    0.24241    0.78492   1.00
C2       0.39488    0.24995    0.74993   1.00
C2       0.60512    0.24995    0.74994   1.00
C3       0.41595    0.28505    0.75068   1.00
C3       0.58363    0.25697    0.71568   1.00
C3       0.41637    0.21499    0.74895   1.00
C3       0.58405    0.24265    0.78428   1.00
C5       0.47772    0.32494    0.75187   1.00
H1       0.52691    0.26257    0.68871   1.00
H1       0.39979    0.31216    0.75142   1.00
H1       0.59901    0.26267    0.68869   1.00
H1       0.40099    0.18742    0.74833   1.00
H1       0.60021    0.23718    0.81084   1.00
C5       0.52228    0.23470    0.82339   1.00
H1       0.47309    0.18746    0.74824   1.00
H2       0.54256    0.24080    0.84791   1.00
H2       0.49731    0.25501    0.82716   1.00
H2       0.45744    0.34743    0.76341   1.00
H2       0.50269    0.32397    0.77250   1.00
N1       0.50857    0.19432    0.82566   1.00
C6       0.53073    0.16227    0.82692   1.00
C6       0.47154    0.18251    0.82799   1.00
C6       0.50759    0.12954    0.82956   1.00
C6       0.46995    0.14241    0.83025   1.00
H3       0.56197    0.16248    0.82565   1.00
H3       0.44700    0.20183    0.82774   1.00
H3       0.51713    0.09963    0.83087   1.00
H3       0.44425    0.12455    0.83215   1.00
N1       0.49143    0.33638    0.71308   1.00
C6       0.52846    0.34134    0.70211   1.00
C6       0.46927    0.34492    0.68216   1.00
C6       0.53005    0.35270    0.66359   1.00
C6       0.49241    0.35497    0.65090   1.00
H3       0.55300    0.33669    0.72086   1.00
H3       0.43803    0.34364    0.68207   1.00
H3       0.55575    0.35864    0.64663   1.00
H3       0.48287    0.36309    0.62208   1.00
C4       0.25012    0.02085    0.75015   1.00
C4       0.24988    -0.02085   0.74985   1.00
C3a      0.24942    0.04254    0.78573   1.00
C3       0.28430    -0.04232   0.75682   1.00
C3       0.25120    0.04232    0.71505   1.00
C3a      0.21508    -0.04254   0.74241   1.00
C2       0.25007    0.10512    0.74995   1.00
C2       0.25006    -0.10512   0.74995   1.00
C3       0.24932    0.08405    0.78505   1.00
C3       0.28432    -0.08363   0.75697   1.00
C3       0.25105    0.08363    0.71499   1.00
C3       0.21572    -0.08405   0.74265   1.00
C5       0.24813    0.02228    0.82494   1.00
H1       0.31129    -0.02691   0.76257   1.00
H1       0.24858    0.10021    0.81216   1.00
H1       0.31131    -0.09901   0.76267   1.00
H1       0.25167    0.09901    0.68742   1.00
H1       0.18916    -0.10021   0.73718   1.00
C5       0.17661    -0.02228   0.73470   1.00
H1       0.25176    0.02691    0.68746   1.00
H2       0.15209    -0.04256   0.74080   1.00
H2       0.17284    0.00269    0.75501   1.00
H2       0.23659    0.04256    0.84743   1.00
H2       0.22750    -0.00269   0.82397   1.00
N1       0.17434    -0.00857   0.69432   1.00
C6       0.17308    -0.03073   0.66227   1.00
C6       0.17201    0.02846    0.68251   1.00
C6       0.17044    -0.00759   0.62954   1.00
C6       0.16975    0.03005    0.64241   1.00
H3       0.17435    -0.06197   0.66248   1.00
H3       0.17226    0.05300    0.70183   1.00
H3       0.16913    -0.01713   0.59963   1.00
H3       0.16785    0.05575    0.62455   1.00
N1       0.28692    0.00857    0.83638   1.00
C6       0.29789    -0.02846   0.84134   1.00
C6       0.31784    0.03073    0.84492   1.00
C6       0.33641    -0.03005   0.85270   1.00
C6       0.34910    0.00759    0.85497   1.00
H3       0.27914    -0.05300   0.83669   1.00
H3       0.31793    0.06197    0.84364   1.00
H3       0.35337    -0.05575   0.85864   1.00
H3       0.37792    0.01713    0.86309   1.00
C4       0.25015    0.25012    0.52085   1.00
C4       0.24985    0.24988    0.47915   1.00
C3a      0.28573    0.24942    0.54254   1.00
C3       0.25682    0.28430    0.45768   1.00
C3       0.21505    0.25120    0.54232   1.00
C3a      0.24241    0.21508    0.45746   1.00
C2       0.24995    0.25007    0.60512   1.00
C2       0.24995    0.25006    0.39488   1.00
C3       0.28505    0.24932    0.58405   1.00
C3       0.25697    0.28432    0.41637   1.00
C3       0.21499    0.25105    0.58363   1.00
C3       0.24265    0.21572    0.41595   1.00
C5       0.32494    0.24813    0.52228   1.00
H1       0.26257    0.31129    0.47309   1.00
H1       0.31216    0.24858    0.60021   1.00
H1       0.26267    0.31131    0.40099   1.00
H1       0.18742    0.25167    0.59901   1.00
H1       0.23718    0.18916    0.39979   1.00
C5       0.23470    0.17661    0.47772   1.00
H1       0.18746    0.25176    0.52691   1.00
H2       0.24080    0.15209    0.45744   1.00
H2       0.25501    0.17284    0.50269   1.00
H2       0.34743    0.23659    0.54256   1.00
H2       0.32397    0.22750    0.49731   1.00
N1       0.19432    0.17434    0.49143   1.00
C6       0.16227    0.17308    0.46927   1.00
C6       0.18251    0.17201    0.52846   1.00
C6       0.12954    0.17044    0.49241   1.00
C6       0.14241    0.16975    0.53005   1.00
H3       0.16248    0.17435    0.43803   1.00
H3       0.20183    0.17226    0.55300   1.00
H3       0.09963    0.16913    0.48287   1.00
H3       0.12455    0.16785    0.55575   1.00
N1       0.33638    0.28692    0.50857   1.00
C6       0.34134    0.29789    0.47154   1.00
C6       0.34492    0.31784    0.53073   1.00
C6       0.35270    0.33641    0.46995   1.00
C6       0.35497    0.34910    0.50759   1.00
H3       0.33669    0.27914    0.44700   1.00
H3       0.34364    0.31793    0.56197   1.00
H3       0.35864    0.35337    0.44425   1.00
H3       0.36309    0.37792    0.51713   1.00
C4       0.25015    0.74988    0.47915   1.00
C4       0.24985    0.75012    0.52085   1.00
C3a      0.28573    0.75058    0.45746   1.00
C3       0.25682    0.71570    0.54232   1.00
C3       0.21505    0.74880    0.45768   1.00
C3a      0.24241    0.78492    0.54254   1.00
C2       0.24995    0.74993    0.39488   1.00
C2       0.24995    0.74994    0.60512   1.00
C3       0.28505    0.75068    0.41595   1.00
C3       0.25697    0.71568    0.58363   1.00
C3       0.21499    0.74895    0.41637   1.00
C3       0.24265    0.78428    0.58405   1.00
C5       0.32494    0.75187    0.47772   1.00
H1       0.26257    0.68871    0.52691   1.00
H1       0.31216    0.75142    0.39979   1.00
H1       0.26267    0.68869    0.59901   1.00
H1       0.18742    0.74833    0.40099   1.00
H1       0.23718    0.81084    0.60021   1.00
C5       0.23470    0.82339    0.52228   1.00
H1       0.18746    0.74824    0.47309   1.00
H2       0.24080    0.84791    0.54256   1.00
H2       0.25501    0.82716    0.49731   1.00
H2       0.34743    0.76341    0.45744   1.00
H2       0.32397    0.77250    0.50269   1.00
N1       0.19432    0.82566    0.50857   1.00
C6       0.16227    0.82692    0.53073   1.00
C6       0.18251    0.82799    0.47154   1.00
C6       0.12954    0.82956    0.50759   1.00
C6       0.14241    0.83025    0.46995   1.00
H3       0.16248    0.82565    0.56197   1.00
H3       0.20183    0.82774    0.44700   1.00
H3       0.09963    0.83087    0.51713   1.00
H3       0.12455    0.83215    0.44425   1.00
N1       0.33638    0.71308    0.49143   1.00
C6       0.34134    0.70211    0.52846   1.00
C6       0.34492    0.68216    0.46927   1.00
C6       0.35270    0.66359    0.53005   1.00
C6       0.35497    0.65090    0.49241   1.00
H3       0.33669    0.72086    0.55300   1.00
H3       0.34364    0.68207    0.43803   1.00
H3       0.35864    0.64663    0.55575   1.00
H3       0.36309    0.62208    0.48287   1.00
C4       0.24988    0.97915    0.25015   1.00
C4       0.25012    1.02085    0.24985   1.00
C3a      0.25058    0.95746    0.28573   1.00
C3       0.21570    1.04232    0.25682   1.00
C3       0.24880    0.95768    0.21505   1.00
C3a      0.28492    1.04254    0.24241   1.00
C2       0.24993    0.89488    0.24995   1.00
C2       0.24994    1.10512    0.24995   1.00
C3       0.25068    0.91595    0.28505   1.00
C3       0.21568    1.08363    0.25697   1.00
C3       0.24895    0.91637    0.21499   1.00
C3       0.28428    1.08405    0.24265   1.00
C5       0.25187    0.97772    0.32494   1.00
H1       0.18871    1.02691    0.26257   1.00
H1       0.25142    0.89979    0.31216   1.00
H1       0.18869    1.09901    0.26267   1.00
H1       0.24833    0.90099    0.18742   1.00
H1       0.31084    1.10021    0.23718   1.00
C5       0.32339    1.02228    0.23470   1.00
H1       0.24824    0.97309    0.18746   1.00
H2       0.34791    1.04256    0.24080   1.00
H2       0.32716    0.99731    0.25501   1.00
H2       0.26341    0.95744    0.34743   1.00
H2       0.27250    1.00269    0.32397   1.00
N1       0.32566    1.00857    0.19432   1.00
C6       0.32692    1.03073    0.16227   1.00
C6       0.32799    0.97154    0.18251   1.00
C6       0.32956    1.00759    0.12954   1.00
C6       0.33025    0.96995    0.14241   1.00
H3       0.32565    1.06197    0.16248   1.00
H3       0.32774    0.94700    0.20183   1.00
H3       0.33087    1.01713    0.09963   1.00
H3       0.33215    0.94425    0.12455   1.00
N1       0.21308    0.99143    0.33638   1.00
C6       0.20211    1.02846    0.34134   1.00
C6       0.18216    0.96927    0.34492   1.00
C6       0.16359    1.03005    0.35270   1.00
C6       0.15090    0.99241    0.35497   1.00
H3       0.22086    1.05300    0.33669   1.00
H3       0.18207    0.93803    0.34364   1.00
H3       0.14663    1.05575    0.35864   1.00
H3       0.12208    0.98287    0.36309   1.00
C4       0.02085    0.75015    0.25012   1.00
C4       -0.02085   0.74985    0.24988   1.00
C3a      0.04254    0.78573    0.24942   1.00
C3       -0.04232   0.75682    0.28430   1.00
C3       0.04232    0.71505    0.25120   1.00
C3a      -0.04254   0.74241    0.21508   1.00
C2       0.10512    0.74995    0.25007   1.00
C2       -0.10512   0.74995    0.25006   1.00
C3       0.08405    0.78505    0.24932   1.00
C3       -0.08363   0.75697    0.28432   1.00
C3       0.08363    0.71499    0.25105   1.00
C3       -0.08405   0.74265    0.21572   1.00
C5       0.02228    0.82494    0.24813   1.00
H1       -0.02691   0.76257    0.31129   1.00
H1       0.10021    0.81216    0.24858   1.00
H1       -0.09901   0.76267    0.31131   1.00
H1       0.09901    0.68742    0.25167   1.00
H1       -0.10021   0.73718    0.18916   1.00
C5       -0.02228   0.73470    0.17661   1.00
H1       0.02691    0.68746    0.25176   1.00
H2       -0.04256   0.74080    0.15209   1.00
H2       0.00269    0.75501    0.17284   1.00
H2       0.04256    0.84743    0.23659   1.00
H2       -0.00269   0.82397    0.22750   1.00
N1       -0.00857   0.69432    0.17434   1.00
C6       -0.03073   0.66227    0.17308   1.00
C6       0.02846    0.68251    0.17201   1.00
C6       -0.00759   0.62954    0.17044   1.00
C6       0.03005    0.64241    0.16975   1.00
H3       -0.06197   0.66248    0.17435   1.00
H3       0.05300    0.70183    0.17226   1.00
H3       -0.01713   0.59963    0.16913   1.00
H3       0.05575    0.62455    0.16785   1.00
N1       0.00857    0.83638    0.28692   1.00
C6       -0.02846   0.84134    0.29789   1.00
C6       0.03073    0.84492    0.31784   1.00
C6       -0.03005   0.85270    0.33641   1.00
C6       0.00759    0.85497    0.34910   1.00
H3       -0.05300   0.83669    0.27914   1.00
H3       0.06197    0.84364    0.31793   1.00
H3       -0.05575   0.85864    0.35337   1.00
H3       0.01713    0.86309    0.37792   1.00
C4       0.47915    0.75015    0.24988   1.00
C4       0.52085    0.74985    0.25012   1.00
C3a      0.45746    0.78573    0.25058   1.00
C3       0.54232    0.75682    0.21570   1.00
C3       0.45768    0.71505    0.24880   1.00
C3a      0.54254    0.74241    0.28492   1.00
C2       0.39488    0.74995    0.24993   1.00
C2       0.60512    0.74995    0.24994   1.00
C3       0.41595    0.78505    0.25068   1.00
C3       0.58363    0.75697    0.21568   1.00
C3       0.41637    0.71499    0.24895   1.00
C3       0.58405    0.74265    0.28428   1.00
C5       0.47772    0.82494    0.25187   1.00
H1       0.52691    0.76257    0.18871   1.00
H1       0.39979    0.81216    0.25142   1.00
H1       0.59901    0.76267    0.18869   1.00
H1       0.40099    0.68742    0.24833   1.00
H1       0.60021    0.73718    0.31084   1.00
C5       0.52228    0.73470    0.32339   1.00
H1       0.47309    0.68746    0.24824   1.00
H2       0.54256    0.74080    0.34791   1.00
H2       0.49731    0.75501    0.32716   1.00
H2       0.45744    0.84743    0.26341   1.00
H2       0.50269    0.82397    0.27250   1.00
N1       0.50857    0.69432    0.32566   1.00
C6       0.53073    0.66227    0.32692   1.00
C6       0.47154    0.68251    0.32799   1.00
C6       0.50759    0.62954    0.32956   1.00
C6       0.46995    0.64241    0.33025   1.00
H3       0.56197    0.66248    0.32565   1.00
H3       0.44700    0.70183    0.32774   1.00
H3       0.51713    0.59963    0.33087   1.00
H3       0.44425    0.62455    0.33215   1.00
N1       0.49143    0.83638    0.21308   1.00
C6       0.52846    0.84134    0.20211   1.00
C6       0.46927    0.84492    0.18216   1.00
C6       0.53005    0.85270    0.16359   1.00
C6       0.49241    0.85497    0.15090   1.00
H3       0.55300    0.83669    0.22086   1.00
H3       0.43803    0.84364    0.18207   1.00
H3       0.55575    0.85864    0.14663   1.00
H3       0.48287    0.86309    0.12208   1.00
C4       0.25012    0.52085    0.25015   1.00
C4       0.24988    0.47915    0.24985   1.00
C3a      0.24942    0.54254    0.28573   1.00
C3       0.28430    0.45768    0.25682   1.00
C3       0.25120    0.54232    0.21505   1.00
C3a      0.21508    0.45746    0.24241   1.00
C2       0.25007    0.60512    0.24995   1.00
C2       0.25006    0.39488    0.24995   1.00
C3       0.24932    0.58405    0.28505   1.00
C3       0.28432    0.41637    0.25697   1.00
C3       0.25105    0.58363    0.21499   1.00
C3       0.21572    0.41595    0.24265   1.00
C5       0.24813    0.52228    0.32494   1.00
H1       0.31129    0.47309    0.26257   1.00
H1       0.24858    0.60021    0.31216   1.00
H1       0.31131    0.40099    0.26267   1.00
H1       0.25167    0.59901    0.18742   1.00
H1       0.18916    0.39979    0.23718   1.00
C5       0.17661    0.47772    0.23470   1.00
H1       0.25176    0.52691    0.18746   1.00
H2       0.15209    0.45744    0.24080   1.00
H2       0.17284    0.50269    0.25501   1.00
H2       0.23659    0.54256    0.34743   1.00
H2       0.22750    0.49731    0.32397   1.00
N1       0.17434    0.49143    0.19432   1.00
C6       0.17308    0.46927    0.16227   1.00
C6       0.17201    0.52846    0.18251   1.00
C6       0.17044    0.49241    0.12954   1.00
C6       0.16975    0.53005    0.14241   1.00
H3       0.17435    0.43803    0.16248   1.00
H3       0.17226    0.55300    0.20183   1.00
H3       0.16913    0.48287    0.09963   1.00
H3       0.16785    0.55575    0.12455   1.00
N1       0.28692    0.50857    0.33638   1.00
C6       0.29789    0.47154    0.34134   1.00
C6       0.31784    0.53073    0.34492   1.00
C6       0.33641    0.46995    0.35270   1.00
C6       0.34910    0.50759    0.35497   1.00
H3       0.27914    0.44700    0.33669   1.00
H3       0.31793    0.56197    0.34364   1.00
H3       0.35337    0.44425    0.35864   1.00
H3       0.37792    0.51713    0.36309   1.00
C4       0.25015    0.75012    0.02085   1.00
C4       0.24985    0.74988    -0.02085   1.00
C3a      0.28573    0.74942    0.04254   1.00
C3       0.25682    0.78430    -0.04232   1.00
C3       0.21505    0.75120    0.04232   1.00
C3a      0.24241    0.71508    -0.04254   1.00
C2       0.24995    0.75007    0.10512   1.00
C2       0.24995    0.75006    -0.10512   1.00
C3       0.28505    0.74932    0.08405   1.00
C3       0.25697    0.78432    -0.08363   1.00
C3       0.21499    0.75105    0.08363   1.00
C3       0.24265    0.71572    -0.08405   1.00
C5       0.32494    0.74813    0.02228   1.00
H1       0.26257    0.81129    -0.02691   1.00
H1       0.31216    0.74858    0.10021   1.00
H1       0.26267    0.81131    -0.09901   1.00
H1       0.18742    0.75167    0.09901   1.00
H1       0.23718    0.68916    -0.10021   1.00
C5       0.23470    0.67661    -0.02228   1.00
H1       0.18746    0.75176    0.02691   1.00
H2       0.24080    0.65209    -0.04256   1.00
H2       0.25501    0.67284    0.00269   1.00
H2       0.34743    0.73659    0.04256   1.00
H2       0.32397    0.72750    -0.00269   1.00
N1       0.19432    0.67434    -0.00857   1.00
C6       0.16227    0.67308    -0.03073   1.00
C6       0.18251    0.67201    0.02846   1.00
C6       0.12954    0.67044    -0.00759   1.00
C6       0.14241    0.66975    0.03005   1.00
H3       0.16248    0.67435    -0.06197   1.00
H3       0.20183    0.67226    0.05300   1.00
H3       0.09963    0.66913    -0.01713   1.00
H3       0.12455    0.66785    0.05575   1.00
N1       0.33638    0.78692    0.00857   1.00
C6       0.34134    0.79789    -0.02846   1.00
C6       0.34492    0.81784    0.03073   1.00
C6       0.35270    0.83641    -0.03005   1.00
C6       0.35497    0.84910    0.00759   1.00
H3       0.33669    0.77914    -0.05300   1.00
H3       0.34364    0.81793    0.06197   1.00
H3       0.35864    0.85337    -0.05575   1.00
H3       0.36309    0.87792    0.01713   1.00
C4       0.75015    0.24988    0.47915   1.00
C4       0.74985    0.25012    0.52085   1.00
C3a      0.78573    0.25058    0.45746   1.00
C3       0.75682    0.21570    0.54232   1.00
C3       0.71505    0.24880    0.45768   1.00
C3a      0.74241    0.28492    0.54254   1.00
C2       0.74995    0.24993    0.39488   1.00
C2       0.74995    0.24994    0.60512   1.00
C3       0.78505    0.25068    0.41595   1.00
C3       0.75697    0.21568    0.58363   1.00
C3       0.71499    0.24895    0.41637   1.00
C3       0.74265    0.28428    0.58405   1.00
C5       0.82494    0.25187    0.47772   1.00
H1       0.76257    0.18871    0.52691   1.00
H1       0.81216    0.25142    0.39979   1.00
H1       0.76267    0.18869    0.59901   1.00
H1       0.68742    0.24833    0.40099   1.00
H1       0.73718    0.31084    0.60021   1.00
C5       0.73470    0.32339    0.52228   1.00
H1       0.68746    0.24824    0.47309   1.00
H2       0.74080    0.34791    0.54256   1.00
H2       0.75501    0.32716    0.49731   1.00
H2       0.84743    0.26341    0.45744   1.00
H2       0.82397    0.27250    0.50269   1.00
N1       0.69432    0.32566    0.50857   1.00
C6       0.66227    0.32692    0.53073   1.00
C6       0.68251    0.32799    0.47154   1.00
C6       0.62954    0.32956    0.50759   1.00
C6       0.64241    0.33025    0.46995   1.00
H3       0.66248    0.32565    0.56197   1.00
H3       0.70183    0.32774    0.44700   1.00
H3       0.59963    0.33087    0.51713   1.00
H3       0.62455    0.33215    0.44425   1.00
N1       0.83638    0.21308    0.49143   1.00
C6       0.84134    0.20211    0.52846   1.00
C6       0.84492    0.18216    0.46927   1.00
C6       0.85270    0.16359    0.53005   1.00
C6       0.85497    0.15090    0.49241   1.00
H3       0.83669    0.22086    0.55300   1.00
H3       0.84364    0.18207    0.43803   1.00
H3       0.85864    0.14663    0.55575   1.00
H3       0.86309    0.12208    0.48287   1.00
C4       0.74988    0.47915    0.25015   1.00
C4       0.75012    0.52085    0.24985   1.00
C3a      0.75058    0.45746    0.28573   1.00
C3       0.71570    0.54232    0.25682   1.00
C3       0.74880    0.45768    0.21505   1.00
C3a      0.78492    0.54254    0.24241   1.00
C2       0.74993    0.39488    0.24995   1.00
C2       0.74994    0.60512    0.24995   1.00
C3       0.75068    0.41595    0.28505   1.00
C3       0.71568    0.58363    0.25697   1.00
C3       0.74895    0.41637    0.21499   1.00
C3       0.78428    0.58405    0.24265   1.00
C5       0.75187    0.47772    0.32494   1.00
H1       0.68871    0.52691    0.26257   1.00
H1       0.75142    0.39979    0.31216   1.00
H1       0.68869    0.59901    0.26267   1.00
H1       0.74833    0.40099    0.18742   1.00
H1       0.81084    0.60021    0.23718   1.00
C5       0.82339    0.52228    0.23470   1.00
H1       0.74824    0.47309    0.18746   1.00
H2       0.84791    0.54256    0.24080   1.00
H2       0.82716    0.49731    0.25501   1.00
H2       0.76341    0.45744    0.34743   1.00
H2       0.77250    0.50269    0.32397   1.00
N1       0.82566    0.50857    0.19432   1.00
C6       0.82692    0.53073    0.16227   1.00
C6       0.82799    0.47154    0.18251   1.00
C6       0.82956    0.50759    0.12954   1.00
C6       0.83025    0.46995    0.14241   1.00
H3       0.82565    0.56197    0.16248   1.00
H3       0.82774    0.44700    0.20183   1.00
H3       0.83087    0.51713    0.09963   1.00
H3       0.83215    0.44425    0.12455   1.00
N1       0.71308    0.49143    0.33638   1.00
C6       0.70211    0.52846    0.34134   1.00
C6       0.68216    0.46927    0.34492   1.00
C6       0.66359    0.53005    0.35270   1.00
C6       0.65090    0.49241    0.35497   1.00
H3       0.72086    0.55300    0.33669   1.00
H3       0.68207    0.43803    0.34364   1.00
H3       0.64663    0.55575    0.35864   1.00
H3       0.62208    0.48287    0.36309   1.00
C4       0.52085    0.25015    0.25012   1.00
C4       0.47915    0.24985    0.24988   1.00
C3a      0.54254    0.28573    0.24942   1.00
C3       0.45768    0.25682    0.28430   1.00
C3       0.54232    0.21505    0.25120   1.00
C3a      0.45746    0.24241    0.21508   1.00
C2       0.60512    0.24995    0.25007   1.00
C2       0.39488    0.24995    0.25006   1.00
C3       0.58405    0.28505    0.24932   1.00
C3       0.41637    0.25697    0.28432   1.00
C3       0.58363    0.21499    0.25105   1.00
C3       0.41595    0.24265    0.21572   1.00
C5       0.52228    0.32494    0.24813   1.00
H1       0.47309    0.26257    0.31129   1.00
H1       0.60021    0.31216    0.24858   1.00
H1       0.40099    0.26267    0.31131   1.00
H1       0.59901    0.18742    0.25167   1.00
H1       0.39979    0.23718    0.18916   1.00
C5       0.47772    0.23470    0.17661   1.00
H1       0.52691    0.18746    0.25176   1.00
H2       0.45744    0.24080    0.15209   1.00
H2       0.50269    0.25501    0.17284   1.00
H2       0.54256    0.34743    0.23659   1.00
H2       0.49731    0.32397    0.22750   1.00
N1       0.49143    0.19432    0.17434   1.00
C6       0.46927    0.16227    0.17308   1.00
C6       0.52846    0.18251    0.17201   1.00
C6       0.49241    0.12954    0.17044   1.00
C6       0.53005    0.14241    0.16975   1.00
H3       0.43803    0.16248    0.17435   1.00
H3       0.55300    0.20183    0.17226   1.00
H3       0.48287    0.09963    0.16913   1.00
H3       0.55575    0.12455    0.16785   1.00
N1       0.50857    0.33638    0.28692   1.00
C6       0.47154    0.34134    0.29789   1.00
C6       0.53073    0.34492    0.31784   1.00
C6       0.46995    0.35270    0.33641   1.00
C6       0.50759    0.35497    0.34910   1.00
H3       0.44700    0.33669    0.27914   1.00
H3       0.56197    0.34364    0.31793   1.00
H3       0.44425    0.35864    0.35337   1.00
H3       0.51713    0.36309    0.37792   1.00
C4       0.97915    0.25015    0.24988   1.00
C4       1.02085    0.24985    0.25012   1.00
C3a      0.95746    0.28573    0.25058   1.00
C3       1.04232    0.25682    0.21570   1.00
C3       0.95768    0.21505    0.24880   1.00
C3a      1.04254    0.24241    0.28492   1.00
C2       0.89488    0.24995    0.24993   1.00
C2       1.10512    0.24995    0.24994   1.00
C3       0.91595    0.28505    0.25068   1.00
C3       1.08363    0.25697    0.21568   1.00
C3       0.91637    0.21499    0.24895   1.00
C3       1.08405    0.24265    0.28428   1.00
C5       0.97772    0.32494    0.25187   1.00
H1       1.02691    0.26257    0.18871   1.00
H1       0.89979    0.31216    0.25142   1.00
H1       1.09901    0.26267    0.18869   1.00
H1       0.90099    0.18742    0.24833   1.00
H1       1.10021    0.23718    0.31084   1.00
C5       1.02228    0.23470    0.32339   1.00
H1       0.97309    0.18746    0.24824   1.00
H2       1.04256    0.24080    0.34791   1.00
H2       0.99731    0.25501    0.32716   1.00
H2       0.95744    0.34743    0.26341   1.00
H2       1.00269    0.32397    0.27250   1.00
N1       1.00857    0.19432    0.32566   1.00
C6       1.03073    0.16227    0.32692   1.00
C6       0.97154    0.18251    0.32799   1.00
C6       1.00759    0.12954    0.32956   1.00
C6       0.96995    0.14241    0.33025   1.00
H3       1.06197    0.16248    0.32565   1.00
H3       0.94700    0.20183    0.32774   1.00
H3       1.01713    0.09963    0.33087   1.00
H3       0.94425    0.12455    0.33215   1.00
N1       0.99143    0.33638    0.21308   1.00
C6       1.02846    0.34134    0.20211   1.00
C6       0.96927    0.34492    0.18216   1.00
C6       1.03005    0.35270    0.16359   1.00
C6       0.99241    0.35497    0.15090   1.00
H3       1.05300    0.33669    0.22086   1.00
H3       0.93803    0.34364    0.18207   1.00
H3       1.05575    0.35864    0.14663   1.00
H3       0.98287    0.36309    0.12208   1.00
C4       0.75012    0.02085    0.25015   1.00
C4       0.74988    -0.02085   0.24985   1.00
C3a      0.74942    0.04254    0.28573   1.00
C3       0.78430    -0.04232   0.25682   1.00
C3       0.75120    0.04232    0.21505   1.00
C3a      0.71508    -0.04254   0.24241   1.00
C2       0.75007    0.10512    0.24995   1.00
C2       0.75006    -0.10512   0.24995   1.00
C3       0.74932    0.08405    0.28505   1.00
C3       0.78432    -0.08363   0.25697   1.00
C3       0.75105    0.08363    0.21499   1.00
C3       0.71572    -0.08405   0.24265   1.00
C5       0.74813    0.02228    0.32494   1.00
H1       0.81129    -0.02691   0.26257   1.00
H1       0.74858    0.10021    0.31216   1.00
H1       0.81131    -0.09901   0.26267   1.00
H1       0.75167    0.09901    0.18742   1.00
H1       0.68916    -0.10021   0.23718   1.00
C5       0.67661    -0.02228   0.23470   1.00
H1       0.75176    0.02691    0.18746   1.00
H2       0.65209    -0.04256   0.24080   1.00
H2       0.67284    0.00269    0.25501   1.00
H2       0.73659    0.04256    0.34743   1.00
H2       0.72750    -0.00269   0.32397   1.00
N1       0.67434    -0.00857   0.19432   1.00
C6       0.67308    -0.03073   0.16227   1.00
C6       0.67201    0.02846    0.18251   1.00
C6       0.67044    -0.00759   0.12954   1.00
C6       0.66975    0.03005    0.14241   1.00
H3       0.67435    -0.06197   0.16248   1.00
H3       0.67226    0.05300    0.20183   1.00
H3       0.66913    -0.01713   0.09963   1.00
H3       0.66785    0.05575    0.12455   1.00
N1       0.78692    0.00857    0.33638   1.00
C6       0.79789    -0.02846   0.34134   1.00
C6       0.81784    0.03073    0.34492   1.00
C6       0.83641    -0.03005   0.35270   1.00
C6       0.84910    0.00759    0.35497   1.00
H3       0.77914    -0.05300   0.33669   1.00
H3       0.81793    0.06197    0.34364   1.00
H3       0.85337    -0.05575   0.35864   1.00
H3       0.87792    0.01713    0.36309   1.00
C4       0.75015    0.25012    0.02085   1.00
C4       0.74985    0.24988    -0.02085   1.00
C3a      0.78573    0.24942    0.04254   1.00
C3       0.75682    0.28430    -0.04232   1.00
C3       0.71505    0.25120    0.04232   1.00
C3a      0.74241    0.21508    -0.04254   1.00
C2       0.74995    0.25007    0.10512   1.00
C2       0.74995    0.25006    -0.10512   1.00
C3       0.78505    0.24932    0.08405   1.00
C3       0.75697    0.28432    -0.08363   1.00
C3       0.71499    0.25105    0.08363   1.00
C3       0.74265    0.21572    -0.08405   1.00
C5       0.82494    0.24813    0.02228   1.00
H1       0.76257    0.31129    -0.02691   1.00
H1       0.81216    0.24858    0.10021   1.00
H1       0.76267    0.31131    -0.09901   1.00
H1       0.68742    0.25167    0.09901   1.00
H1       0.73718    0.18916    -0.10021   1.00
C5       0.73470    0.17661    -0.02228   1.00
H1       0.68746    0.25176    0.02691   1.00
H2       0.74080    0.15209    -0.04256   1.00
H2       0.75501    0.17284    0.00269   1.00
H2       0.84743    0.23659    0.04256   1.00
H2       0.82397    0.22750    -0.00269   1.00
N1       0.69432    0.17434    -0.00857   1.00
C6       0.66227    0.17308    -0.03073   1.00
C6       0.68251    0.17201    0.02846   1.00
C6       0.62954    0.17044    -0.00759   1.00
C6       0.64241    0.16975    0.03005   1.00
H3       0.66248    0.17435    -0.06197   1.00
H3       0.70183    0.17226    0.05300   1.00
H3       0.59963    0.16913    -0.01713   1.00
H3       0.62455    0.16785    0.05575   1.00
N1       0.83638    0.28692    0.00857   1.00
C6       0.84134    0.29789    -0.02846   1.00
C6       0.84492    0.31784    0.03073   1.00
C6       0.85270    0.33641    -0.03005   1.00
C6       0.85497    0.34910    0.00759   1.00
H3       0.83669    0.27914    -0.05300   1.00
H3       0.84364    0.31793    0.06197   1.00
H3       0.85864    0.35337    -0.05575   1.00
H3       0.86309    0.37792    0.01713   1.00
