data_IRMOF10_SG202_Ligand11_label_y.

_audit_creation_method             'generated by an auxiliary program of Tobunporous'

_symmetry_space_group_name_H-M     'P 1'
_symmetry_Int_Tables_number        1
_symmetry_cell_setting             triclinic

_cell_length_a                    34.2800
_cell_length_b                    34.2800
_cell_length_c                    34.2800
_cell_angle_alpha                 90.0000
_cell_angle_beta                  90.0000
_cell_angle_gamma                 90.0000

loop_
_atom_site_label
_atom_site_fract_x
_atom_site_fract_y
_atom_site_fract_z
_atom_site_occupancy
O1       0.75000    0.75000    0.75000   1.00
Zn1      0.71720    0.78280    0.78280   1.00
Zn1      0.78280    0.71720    0.78280   1.00
Zn1      0.78280    0.78280    0.71720   1.00
Zn1      0.71720    0.71720    0.71720   1.00
O2       0.72650    0.77350    0.83820   1.00
O2       0.72650    0.83820    0.77350   1.00
O2       0.66180    0.77350    0.77350   1.00
O2       0.77350    0.72650    0.83820   1.00
O2       0.83820    0.72650    0.77350   1.00
O2       0.77350    0.66180    0.77350   1.00
O2       0.77350    0.83820    0.72650   1.00
O2       0.83820    0.77350    0.72650   1.00
O2       0.77350    0.77350    0.66180   1.00
O2       0.66180    0.72650    0.72650   1.00
O2       0.72650    0.66180    0.72650   1.00
O2       0.72650    0.72650    0.66180   1.00
C1       0.75000    0.75000    0.85520   1.00
C1       0.75000    0.85520    0.75000   1.00
C1       0.64480    0.75000    0.75000   1.00
C1       0.85520    0.75000    0.75000   1.00
C1       0.75000    0.64480    0.75000   1.00
C1       0.75000    0.75000    0.64480   1.00
O1       0.25000    0.25000    0.75000   1.00
Zn1      0.21720    0.28280    0.78280   1.00
Zn1      0.28280    0.21720    0.78280   1.00
Zn1      0.28280    0.28280    0.71720   1.00
Zn1      0.21720    0.21720    0.71720   1.00
O2       0.22650    0.27350    0.83820   1.00
O2       0.22650    0.33820    0.77350   1.00
O2       0.16180    0.27350    0.77350   1.00
O2       0.27350    0.22650    0.83820   1.00
O2       0.33820    0.22650    0.77350   1.00
O2       0.27350    0.16180    0.77350   1.00
O2       0.27350    0.33820    0.72650   1.00
O2       0.33820    0.27350    0.72650   1.00
O2       0.27350    0.27350    0.66180   1.00
O2       0.16180    0.22650    0.72650   1.00
O2       0.22650    0.16180    0.72650   1.00
O2       0.22650    0.22650    0.66180   1.00
C1       0.25000    0.25000    0.85520   1.00
C1       0.25000    0.35520    0.75000   1.00
C1       0.14480    0.25000    0.75000   1.00
C1       0.35520    0.25000    0.75000   1.00
C1       0.25000    0.14480    0.75000   1.00
C1       0.25000    0.25000    0.64480   1.00
O1       0.25000    0.75000    0.25000   1.00
Zn1      0.21720    0.78280    0.28280   1.00
Zn1      0.28280    0.71720    0.28280   1.00
Zn1      0.28280    0.78280    0.21720   1.00
Zn1      0.21720    0.71720    0.21720   1.00
O2       0.22650    0.77350    0.33820   1.00
O2       0.22650    0.83820    0.27350   1.00
O2       0.16180    0.77350    0.27350   1.00
O2       0.27350    0.72650    0.33820   1.00
O2       0.33820    0.72650    0.27350   1.00
O2       0.27350    0.66180    0.27350   1.00
O2       0.27350    0.83820    0.22650   1.00
O2       0.33820    0.77350    0.22650   1.00
O2       0.27350    0.77350    0.16180   1.00
O2       0.16180    0.72650    0.22650   1.00
O2       0.22650    0.66180    0.22650   1.00
O2       0.22650    0.72650    0.16180   1.00
C1       0.25000    0.75000    0.35520   1.00
C1       0.25000    0.85520    0.25000   1.00
C1       0.14480    0.75000    0.25000   1.00
C1       0.35520    0.75000    0.25000   1.00
C1       0.25000    0.64480    0.25000   1.00
C1       0.25000    0.75000    0.14480   1.00
O1       0.75000    0.25000    0.25000   1.00
Zn1      0.71720    0.28280    0.28280   1.00
Zn1      0.78280    0.21720    0.28280   1.00
Zn1      0.78280    0.28280    0.21720   1.00
Zn1      0.71720    0.21720    0.21720   1.00
O2       0.72650    0.27350    0.33820   1.00
O2       0.72650    0.33820    0.27350   1.00
O2       0.66180    0.27350    0.27350   1.00
O2       0.77350    0.22650    0.33820   1.00
O2       0.83820    0.22650    0.27350   1.00
O2       0.77350    0.16180    0.27350   1.00
O2       0.77350    0.33820    0.22650   1.00
O2       0.83820    0.27350    0.22650   1.00
O2       0.77350    0.27350    0.16180   1.00
O2       0.66180    0.22650    0.22650   1.00
O2       0.72650    0.16180    0.22650   1.00
O2       0.72650    0.22650    0.16180   1.00
C1       0.75000    0.25000    0.35520   1.00
C1       0.75000    0.35520    0.25000   1.00
C1       0.64480    0.25000    0.25000   1.00
C1       0.85520    0.25000    0.25000   1.00
C1       0.75000    0.14480    0.25000   1.00
C1       0.75000    0.25000    0.14480   1.00
O1       0.25000    0.25000    0.25000   1.00
Zn1      0.28280    0.21720    0.21720   1.00
Zn1      0.21720    0.28280    0.21720   1.00
Zn1      0.21720    0.21720    0.28280   1.00
Zn1      0.28280    0.28280    0.28280   1.00
O2       0.27350    0.22650    0.16180   1.00
O2       0.27350    0.16180    0.22650   1.00
O2       0.33820    0.22650    0.22650   1.00
O2       0.22650    0.27350    0.16180   1.00
O2       0.16180    0.27350    0.22650   1.00
O2       0.22650    0.33820    0.22650   1.00
O2       0.22650    0.16180    0.27350   1.00
O2       0.16180    0.22650    0.27350   1.00
O2       0.22650    0.22650    0.33820   1.00
O2       0.33820    0.27350    0.27350   1.00
O2       0.27350    0.33820    0.27350   1.00
O2       0.27350    0.27350    0.33820   1.00
C1       0.25000    0.25000    0.14480   1.00
C1       0.25000    0.14480    0.25000   1.00
C1       0.35520    0.25000    0.25000   1.00
C1       0.14480    0.25000    0.25000   1.00
C1       0.25000    0.35520    0.25000   1.00
C1       0.25000    0.25000    0.35520   1.00
O1       0.75000    0.75000    0.25000   1.00
Zn1      0.78280    0.71720    0.21720   1.00
Zn1      0.71720    0.78280    0.21720   1.00
Zn1      0.71720    0.71720    0.28280   1.00
Zn1      0.78280    0.78280    0.28280   1.00
O2       0.77350    0.72650    0.16180   1.00
O2       0.77350    0.66180    0.22650   1.00
O2       0.83820    0.72650    0.22650   1.00
O2       0.72650    0.77350    0.16180   1.00
O2       0.66180    0.77350    0.22650   1.00
O2       0.72650    0.83820    0.22650   1.00
O2       0.72650    0.66180    0.27350   1.00
O2       0.66180    0.72650    0.27350   1.00
O2       0.72650    0.72650    0.33820   1.00
O2       0.83820    0.77350    0.27350   1.00
O2       0.77350    0.83820    0.27350   1.00
O2       0.77350    0.77350    0.33820   1.00
C1       0.75000    0.75000    0.14480   1.00
C1       0.75000    0.64480    0.25000   1.00
C1       0.85520    0.75000    0.25000   1.00
C1       0.64480    0.75000    0.25000   1.00
C1       0.75000    0.85520    0.25000   1.00
C1       0.75000    0.75000    0.35520   1.00
O1       0.75000    0.25000    0.75000   1.00
Zn1      0.78280    0.21720    0.71720   1.00
Zn1      0.71720    0.28280    0.71720   1.00
Zn1      0.71720    0.21720    0.78280   1.00
Zn1      0.78280    0.28280    0.78280   1.00
O2       0.77350    0.22650    0.66180   1.00
O2       0.77350    0.16180    0.72650   1.00
O2       0.83820    0.22650    0.72650   1.00
O2       0.72650    0.27350    0.66180   1.00
O2       0.66180    0.27350    0.72650   1.00
O2       0.72650    0.33820    0.72650   1.00
O2       0.72650    0.16180    0.77350   1.00
O2       0.66180    0.22650    0.77350   1.00
O2       0.72650    0.22650    0.83820   1.00
O2       0.83820    0.27350    0.77350   1.00
O2       0.77350    0.33820    0.77350   1.00
O2       0.77350    0.27350    0.83820   1.00
C1       0.75000    0.25000    0.64480   1.00
C1       0.75000    0.14480    0.75000   1.00
C1       0.85520    0.25000    0.75000   1.00
C1       0.64480    0.25000    0.75000   1.00
C1       0.75000    0.35520    0.75000   1.00
C1       0.75000    0.25000    0.85520   1.00
O1       0.25000    0.75000    0.75000   1.00
Zn1      0.28280    0.71720    0.71720   1.00
Zn1      0.21720    0.78280    0.71720   1.00
Zn1      0.21720    0.71720    0.78280   1.00
Zn1      0.28280    0.78280    0.78280   1.00
O2       0.27350    0.72650    0.66180   1.00
O2       0.27350    0.66180    0.72650   1.00
O2       0.33820    0.72650    0.72650   1.00
O2       0.22650    0.77350    0.66180   1.00
O2       0.16180    0.77350    0.72650   1.00
O2       0.22650    0.83820    0.72650   1.00
O2       0.22650    0.66180    0.77350   1.00
O2       0.16180    0.72650    0.77350   1.00
O2       0.22650    0.72650    0.83820   1.00
O2       0.33820    0.77350    0.77350   1.00
O2       0.27350    0.83820    0.77350   1.00
O2       0.27350    0.77350    0.83820   1.00
C1       0.25000    0.75000    0.64480   1.00
C1       0.25000    0.64480    0.75000   1.00
C1       0.35520    0.75000    0.75000   1.00
C1       0.14480    0.75000    0.75000   1.00
C1       0.25000    0.85520    0.75000   1.00
C1       0.25000    0.75000    0.85520   1.00
C4       0.75003    0.75020    0.97915   1.00
C4       0.74997    0.74980    1.02085   1.00
C3a      0.73163    0.78065    0.95746   1.00
C3       0.77630    0.77306    1.04232   1.00
C3       0.76852    0.72033    0.95768   1.00
C3a      0.72356    0.72597    1.04254   1.00
C2       0.75008    0.74999    0.89488   1.00
C2       0.75008    0.74998    1.10512   1.00
C3       0.73189    0.78002    0.91595   1.00
C3       0.77624    0.77320    1.08363   1.00
C3       0.76842    0.72021    0.91637   1.00
C3       0.72399    0.72650    1.08405   1.00
C5       0.71091    0.81396    0.97772   1.00
H1       0.79679    0.79154    1.02691   1.00
H1       0.71769    0.80312    0.89979   1.00
H1       0.79676    0.79162    1.09901   1.00
H1       0.78274    0.69664    0.90099   1.00
H1       0.70372    0.70848    1.10021   1.00
C5       0.69409    0.70006    1.02228   1.00
H1       0.78280    0.69672    0.97309   1.00
H2       0.66980    0.69308    1.04256   1.00
H2       0.68068    0.71576    0.99731   1.00
H2       0.68967    0.82767    0.95744   1.00
H2       0.69353    0.80281    1.00269   1.00
N1       0.71232    0.66395    1.00857   1.00
C6       0.72725    0.63556    1.03073   1.00
C6       0.71620    0.65256    0.97154   1.00
C6       0.74133    0.60590    1.00759   1.00
C6       0.73430    0.61670    0.96995   1.00
H3       0.72825    0.63638    1.06197   1.00
H3       0.70676    0.66941    0.94700   1.00
H3       0.75515    0.57934    1.01713   1.00
H3       0.74158    0.60028    0.94425   1.00
N1       0.73879    0.84327    0.99143   1.00
C6       0.74580    0.85305    1.02846   1.00
C6       0.76129    0.86613    0.96927   1.00
C6       0.77348    0.88215    1.03005   1.00
C6       0.78334    0.89046    0.99241   1.00
H3       0.73189    0.83965    1.05300   1.00
H3       0.76201    0.86506    0.93803   1.00
H3       0.78520    0.89577    1.05575   1.00
H3       0.80424    0.91189    0.98287   1.00
C4       0.75020    0.97915    0.75003   1.00
C4       0.74980    1.02085    0.74997   1.00
C3a      0.78065    0.95746    0.73163   1.00
C3       0.77306    1.04232    0.77630   1.00
C3       0.72033    0.95768    0.76852   1.00
C3a      0.72597    1.04254    0.72356   1.00
C2       0.74999    0.89488    0.75008   1.00
C2       0.74998    1.10512    0.75008   1.00
C3       0.78002    0.91595    0.73189   1.00
C3       0.77320    1.08363    0.77624   1.00
C3       0.72021    0.91637    0.76842   1.00
C3       0.72650    1.08405    0.72399   1.00
C5       0.81396    0.97772    0.71091   1.00
H1       0.79154    1.02691    0.79679   1.00
H1       0.80312    0.89979    0.71769   1.00
H1       0.79162    1.09901    0.79676   1.00
H1       0.69664    0.90099    0.78274   1.00
H1       0.70848    1.10021    0.70372   1.00
C5       0.70006    1.02228    0.69409   1.00
H1       0.69672    0.97309    0.78280   1.00
H2       0.69308    1.04256    0.66980   1.00
H2       0.71576    0.99731    0.68068   1.00
H2       0.82767    0.95744    0.68967   1.00
H2       0.80281    1.00269    0.69353   1.00
N1       0.66395    1.00857    0.71232   1.00
C6       0.63556    1.03073    0.72725   1.00
C6       0.65256    0.97154    0.71620   1.00
C6       0.60590    1.00759    0.74133   1.00
C6       0.61670    0.96995    0.73430   1.00
H3       0.63638    1.06197    0.72825   1.00
H3       0.66941    0.94700    0.70676   1.00
H3       0.57934    1.01713    0.75515   1.00
H3       0.60028    0.94425    0.74158   1.00
N1       0.84327    0.99143    0.73879   1.00
C6       0.85305    1.02846    0.74580   1.00
C6       0.86613    0.96927    0.76129   1.00
C6       0.88215    1.03005    0.77348   1.00
C6       0.89046    0.99241    0.78334   1.00
H3       0.83965    1.05300    0.73189   1.00
H3       0.86506    0.93803    0.76201   1.00
H3       0.89577    1.05575    0.78520   1.00
H3       0.91189    0.98287    0.80424   1.00
C4       0.52085    0.75003    0.74980   1.00
C4       0.47915    0.74997    0.75020   1.00
C3a      0.54254    0.73163    0.71935   1.00
C3       0.45768    0.77630    0.72694   1.00
C3       0.54232    0.76852    0.77967   1.00
C3a      0.45746    0.72356    0.77403   1.00
C2       0.60512    0.75008    0.75001   1.00
C2       0.39488    0.75008    0.75002   1.00
C3       0.58405    0.73189    0.71998   1.00
C3       0.41637    0.77624    0.72680   1.00
C3       0.58363    0.76842    0.77979   1.00
C3       0.41595    0.72399    0.77350   1.00
C5       0.52228    0.71091    0.68604   1.00
H1       0.47309    0.79679    0.70846   1.00
H1       0.60021    0.71769    0.69688   1.00
H1       0.40099    0.79676    0.70838   1.00
H1       0.59901    0.78274    0.80336   1.00
H1       0.39979    0.70372    0.79152   1.00
C5       0.47772    0.69409    0.79994   1.00
H1       0.52691    0.78280    0.80328   1.00
H2       0.45744    0.66980    0.80692   1.00
H2       0.50269    0.68068    0.78424   1.00
H2       0.54256    0.68967    0.67233   1.00
H2       0.49731    0.69353    0.69719   1.00
N1       0.49143    0.71232    0.83605   1.00
C6       0.46927    0.72725    0.86444   1.00
C6       0.52846    0.71620    0.84744   1.00
C6       0.49241    0.74133    0.89410   1.00
C6       0.53005    0.73430    0.88330   1.00
H3       0.43803    0.72825    0.86362   1.00
H3       0.55300    0.70676    0.83059   1.00
H3       0.48287    0.75515    0.92066   1.00
H3       0.55575    0.74158    0.89972   1.00
N1       0.50857    0.73879    0.65673   1.00
C6       0.47154    0.74580    0.64695   1.00
C6       0.53073    0.76129    0.63387   1.00
C6       0.46995    0.77348    0.61785   1.00
C6       0.50759    0.78334    0.60954   1.00
H3       0.44700    0.73189    0.66035   1.00
H3       0.56197    0.76201    0.63494   1.00
H3       0.44425    0.78520    0.60423   1.00
H3       0.51713    0.80424    0.58811   1.00
C4       0.97915    0.75003    0.75020   1.00
C4       1.02085    0.74997    0.74980   1.00
C3a      0.95746    0.73163    0.78065   1.00
C3       1.04232    0.77630    0.77306   1.00
C3       0.95768    0.76852    0.72033   1.00
C3a      1.04254    0.72356    0.72597   1.00
C2       0.89488    0.75008    0.74999   1.00
C2       1.10512    0.75008    0.74998   1.00
C3       0.91595    0.73189    0.78002   1.00
C3       1.08363    0.77624    0.77320   1.00
C3       0.91637    0.76842    0.72021   1.00
C3       1.08405    0.72399    0.72650   1.00
C5       0.97772    0.71091    0.81396   1.00
H1       1.02691    0.79679    0.79154   1.00
H1       0.89979    0.71769    0.80312   1.00
H1       1.09901    0.79676    0.79162   1.00
H1       0.90099    0.78274    0.69664   1.00
H1       1.10021    0.70372    0.70848   1.00
C5       1.02228    0.69409    0.70006   1.00
H1       0.97309    0.78280    0.69672   1.00
H2       1.04256    0.66980    0.69308   1.00
H2       0.99731    0.68068    0.71576   1.00
H2       0.95744    0.68967    0.82767   1.00
H2       1.00269    0.69353    0.80281   1.00
N1       1.00857    0.71232    0.66395   1.00
C6       1.03073    0.72725    0.63556   1.00
C6       0.97154    0.71620    0.65256   1.00
C6       1.00759    0.74133    0.60590   1.00
C6       0.96995    0.73430    0.61670   1.00
H3       1.06197    0.72825    0.63638   1.00
H3       0.94700    0.70676    0.66941   1.00
H3       1.01713    0.75515    0.57934   1.00
H3       0.94425    0.74158    0.60028   1.00
N1       0.99143    0.73879    0.84327   1.00
C6       1.02846    0.74580    0.85305   1.00
C6       0.96927    0.76129    0.86613   1.00
C6       1.03005    0.77348    0.88215   1.00
C6       0.99241    0.78334    0.89046   1.00
H3       1.05300    0.73189    0.83965   1.00
H3       0.93803    0.76201    0.86506   1.00
H3       1.05575    0.78520    0.89577   1.00
H3       0.98287    0.80424    0.91189   1.00
C4       0.74980    0.52085    0.75003   1.00
C4       0.75020    0.47915    0.74997   1.00
C3a      0.71935    0.54254    0.73163   1.00
C3       0.72694    0.45768    0.77630   1.00
C3       0.77967    0.54232    0.76852   1.00
C3a      0.77403    0.45746    0.72356   1.00
C2       0.75001    0.60512    0.75008   1.00
C2       0.75002    0.39488    0.75008   1.00
C3       0.71998    0.58405    0.73189   1.00
C3       0.72680    0.41637    0.77624   1.00
C3       0.77979    0.58363    0.76842   1.00
C3       0.77350    0.41595    0.72399   1.00
C5       0.68604    0.52228    0.71091   1.00
H1       0.70846    0.47309    0.79679   1.00
H1       0.69688    0.60021    0.71769   1.00
H1       0.70838    0.40099    0.79676   1.00
H1       0.80336    0.59901    0.78274   1.00
H1       0.79152    0.39979    0.70372   1.00
C5       0.79994    0.47772    0.69409   1.00
H1       0.80328    0.52691    0.78280   1.00
H2       0.80692    0.45744    0.66980   1.00
H2       0.78424    0.50269    0.68068   1.00
H2       0.67233    0.54256    0.68967   1.00
H2       0.69719    0.49731    0.69353   1.00
N1       0.83605    0.49143    0.71232   1.00
C6       0.86444    0.46927    0.72725   1.00
C6       0.84744    0.52846    0.71620   1.00
C6       0.89410    0.49241    0.74133   1.00
C6       0.88330    0.53005    0.73430   1.00
H3       0.86362    0.43803    0.72825   1.00
H3       0.83059    0.55300    0.70676   1.00
H3       0.92066    0.48287    0.75515   1.00
H3       0.89972    0.55575    0.74158   1.00
N1       0.65673    0.50857    0.73879   1.00
C6       0.64695    0.47154    0.74580   1.00
C6       0.63387    0.53073    0.76129   1.00
C6       0.61785    0.46995    0.77348   1.00
C6       0.60954    0.50759    0.78334   1.00
H3       0.66035    0.44700    0.73189   1.00
H3       0.63494    0.56197    0.76201   1.00
H3       0.60423    0.44425    0.78520   1.00
H3       0.58811    0.51713    0.80424   1.00
C4       0.75003    0.74980    0.52085   1.00
C4       0.74997    0.75020    0.47915   1.00
C3a      0.73163    0.71935    0.54254   1.00
C3       0.77630    0.72694    0.45768   1.00
C3       0.76852    0.77967    0.54232   1.00
C3a      0.72356    0.77403    0.45746   1.00
C2       0.75008    0.75001    0.60512   1.00
C2       0.75008    0.75002    0.39488   1.00
C3       0.73189    0.71998    0.58405   1.00
C3       0.77624    0.72680    0.41637   1.00
C3       0.76842    0.77979    0.58363   1.00
C3       0.72399    0.77350    0.41595   1.00
C5       0.71091    0.68604    0.52228   1.00
H1       0.79679    0.70846    0.47309   1.00
H1       0.71769    0.69688    0.60021   1.00
H1       0.79676    0.70838    0.40099   1.00
H1       0.78274    0.80336    0.59901   1.00
H1       0.70372    0.79152    0.39979   1.00
C5       0.69409    0.79994    0.47772   1.00
H1       0.78280    0.80328    0.52691   1.00
H2       0.66980    0.80692    0.45744   1.00
H2       0.68068    0.78424    0.50269   1.00
H2       0.68967    0.67233    0.54256   1.00
H2       0.69353    0.69719    0.49731   1.00
N1       0.71232    0.83605    0.49143   1.00
C6       0.72725    0.86444    0.46927   1.00
C6       0.71620    0.84744    0.52846   1.00
C6       0.74133    0.89410    0.49241   1.00
C6       0.73430    0.88330    0.53005   1.00
H3       0.72825    0.86362    0.43803   1.00
H3       0.70676    0.83059    0.55300   1.00
H3       0.75515    0.92066    0.48287   1.00
H3       0.74158    0.89972    0.55575   1.00
N1       0.73879    0.65673    0.50857   1.00
C6       0.74580    0.64695    0.47154   1.00
C6       0.76129    0.63387    0.53073   1.00
C6       0.77348    0.61785    0.46995   1.00
C6       0.78334    0.60954    0.50759   1.00
H3       0.73189    0.66035    0.44700   1.00
H3       0.76201    0.63494    0.56197   1.00
H3       0.78520    0.60423    0.44425   1.00
H3       0.80424    0.58811    0.51713   1.00
C4       0.25003    0.25020    0.97915   1.00
C4       0.24997    0.24980    1.02085   1.00
C3a      0.23163    0.28065    0.95746   1.00
C3       0.27630    0.27306    1.04232   1.00
C3       0.26852    0.22033    0.95768   1.00
C3a      0.22356    0.22597    1.04254   1.00
C2       0.25008    0.24999    0.89488   1.00
C2       0.25008    0.24998    1.10512   1.00
C3       0.23189    0.28002    0.91595   1.00
C3       0.27624    0.27320    1.08363   1.00
C3       0.26842    0.22021    0.91637   1.00
C3       0.22399    0.22650    1.08405   1.00
C5       0.21091    0.31396    0.97772   1.00
H1       0.29679    0.29154    1.02691   1.00
H1       0.21769    0.30312    0.89979   1.00
H1       0.29676    0.29162    1.09901   1.00
H1       0.28274    0.19664    0.90099   1.00
H1       0.20372    0.20848    1.10021   1.00
C5       0.19409    0.20006    1.02228   1.00
H1       0.28280    0.19672    0.97309   1.00
H2       0.16980    0.19308    1.04256   1.00
H2       0.18068    0.21576    0.99731   1.00
H2       0.18967    0.32767    0.95744   1.00
H2       0.19353    0.30281    1.00269   1.00
N1       0.21232    0.16395    1.00857   1.00
C6       0.22725    0.13556    1.03073   1.00
C6       0.21620    0.15256    0.97154   1.00
C6       0.24133    0.10590    1.00759   1.00
C6       0.23430    0.11670    0.96995   1.00
H3       0.22825    0.13638    1.06197   1.00
H3       0.20676    0.16941    0.94700   1.00
H3       0.25515    0.07934    1.01713   1.00
H3       0.24158    0.10028    0.94425   1.00
N1       0.23879    0.34327    0.99143   1.00
C6       0.24580    0.35305    1.02846   1.00
C6       0.26129    0.36613    0.96927   1.00
C6       0.27348    0.38215    1.03005   1.00
C6       0.28334    0.39046    0.99241   1.00
H3       0.23189    0.33965    1.05300   1.00
H3       0.26201    0.36506    0.93803   1.00
H3       0.28520    0.39577    1.05575   1.00
H3       0.30424    0.41189    0.98287   1.00
C4       0.25020    0.47915    0.75003   1.00
C4       0.24980    0.52085    0.74997   1.00
C3a      0.28065    0.45746    0.73163   1.00
C3       0.27306    0.54232    0.77630   1.00
C3       0.22033    0.45768    0.76852   1.00
C3a      0.22597    0.54254    0.72356   1.00
C2       0.24999    0.39488    0.75008   1.00
C2       0.24998    0.60512    0.75008   1.00
C3       0.28002    0.41595    0.73189   1.00
C3       0.27320    0.58363    0.77624   1.00
C3       0.22021    0.41637    0.76842   1.00
C3       0.22650    0.58405    0.72399   1.00
C5       0.31396    0.47772    0.71091   1.00
H1       0.29154    0.52691    0.79679   1.00
H1       0.30312    0.39979    0.71769   1.00
H1       0.29162    0.59901    0.79676   1.00
H1       0.19664    0.40099    0.78274   1.00
H1       0.20848    0.60021    0.70372   1.00
C5       0.20006    0.52228    0.69409   1.00
H1       0.19672    0.47309    0.78280   1.00
H2       0.19308    0.54256    0.66980   1.00
H2       0.21576    0.49731    0.68068   1.00
H2       0.32767    0.45744    0.68967   1.00
H2       0.30281    0.50269    0.69353   1.00
N1       0.16395    0.50857    0.71232   1.00
C6       0.13556    0.53073    0.72725   1.00
C6       0.15256    0.47154    0.71620   1.00
C6       0.10590    0.50759    0.74133   1.00
C6       0.11670    0.46995    0.73430   1.00
H3       0.13638    0.56197    0.72825   1.00
H3       0.16941    0.44700    0.70676   1.00
H3       0.07934    0.51713    0.75515   1.00
H3       0.10028    0.44425    0.74158   1.00
N1       0.34327    0.49143    0.73879   1.00
C6       0.35305    0.52846    0.74580   1.00
C6       0.36613    0.46927    0.76129   1.00
C6       0.38215    0.53005    0.77348   1.00
C6       0.39046    0.49241    0.78334   1.00
H3       0.33965    0.55300    0.73189   1.00
H3       0.36506    0.43803    0.76201   1.00
H3       0.39577    0.55575    0.78520   1.00
H3       0.41189    0.48287    0.80424   1.00
C4       0.02085    0.25003    0.74980   1.00
C4       -0.02085   0.24997    0.75020   1.00
C3a      0.04254    0.23163    0.71935   1.00
C3       -0.04232   0.27630    0.72694   1.00
C3       0.04232    0.26852    0.77967   1.00
C3a      -0.04254   0.22356    0.77403   1.00
C2       0.10512    0.25008    0.75001   1.00
C2       -0.10512   0.25008    0.75002   1.00
C3       0.08405    0.23189    0.71998   1.00
C3       -0.08363   0.27624    0.72680   1.00
C3       0.08363    0.26842    0.77979   1.00
C3       -0.08405   0.22399    0.77350   1.00
C5       0.02228    0.21091    0.68604   1.00
H1       -0.02691   0.29679    0.70846   1.00
H1       0.10021    0.21769    0.69688   1.00
H1       -0.09901   0.29676    0.70838   1.00
H1       0.09901    0.28274    0.80336   1.00
H1       -0.10021   0.20372    0.79152   1.00
C5       -0.02228   0.19409    0.79994   1.00
H1       0.02691    0.28280    0.80328   1.00
H2       -0.04256   0.16980    0.80692   1.00
H2       0.00269    0.18068    0.78424   1.00
H2       0.04256    0.18967    0.67233   1.00
H2       -0.00269   0.19353    0.69719   1.00
N1       -0.00857   0.21232    0.83605   1.00
C6       -0.03073   0.22725    0.86444   1.00
C6       0.02846    0.21620    0.84744   1.00
C6       -0.00759   0.24133    0.89410   1.00
C6       0.03005    0.23430    0.88330   1.00
H3       -0.06197   0.22825    0.86362   1.00
H3       0.05300    0.20676    0.83059   1.00
H3       -0.01713   0.25515    0.92066   1.00
H3       0.05575    0.24158    0.89972   1.00
N1       0.00857    0.23879    0.65673   1.00
C6       -0.02846   0.24580    0.64695   1.00
C6       0.03073    0.26129    0.63387   1.00
C6       -0.03005   0.27348    0.61785   1.00
C6       0.00759    0.28334    0.60954   1.00
H3       -0.05300   0.23189    0.66035   1.00
H3       0.06197    0.26201    0.63494   1.00
H3       -0.05575   0.28520    0.60423   1.00
H3       0.01713    0.30424    0.58811   1.00
C4       0.47915    0.25003    0.75020   1.00
C4       0.52085    0.24997    0.74980   1.00
C3a      0.45746    0.23163    0.78065   1.00
C3       0.54232    0.27630    0.77306   1.00
C3       0.45768    0.26852    0.72033   1.00
C3a      0.54254    0.22356    0.72597   1.00
C2       0.39488    0.25008    0.74999   1.00
C2       0.60512    0.25008    0.74998   1.00
C3       0.41595    0.23189    0.78002   1.00
C3       0.58363    0.27624    0.77320   1.00
C3       0.41637    0.26842    0.72021   1.00
C3       0.58405    0.22399    0.72650   1.00
C5       0.47772    0.21091    0.81396   1.00
H1       0.52691    0.29679    0.79154   1.00
H1       0.39979    0.21769    0.80312   1.00
H1       0.59901    0.29676    0.79162   1.00
H1       0.40099    0.28274    0.69664   1.00
H1       0.60021    0.20372    0.70848   1.00
C5       0.52228    0.19409    0.70006   1.00
H1       0.47309    0.28280    0.69672   1.00
H2       0.54256    0.16980    0.69308   1.00
H2       0.49731    0.18068    0.71576   1.00
H2       0.45744    0.18967    0.82767   1.00
H2       0.50269    0.19353    0.80281   1.00
N1       0.50857    0.21232    0.66395   1.00
C6       0.53073    0.22725    0.63556   1.00
C6       0.47154    0.21620    0.65256   1.00
C6       0.50759    0.24133    0.60590   1.00
C6       0.46995    0.23430    0.61670   1.00
H3       0.56197    0.22825    0.63638   1.00
H3       0.44700    0.20676    0.66941   1.00
H3       0.51713    0.25515    0.57934   1.00
H3       0.44425    0.24158    0.60028   1.00
N1       0.49143    0.23879    0.84327   1.00
C6       0.52846    0.24580    0.85305   1.00
C6       0.46927    0.26129    0.86613   1.00
C6       0.53005    0.27348    0.88215   1.00
C6       0.49241    0.28334    0.89046   1.00
H3       0.55300    0.23189    0.83965   1.00
H3       0.43803    0.26201    0.86506   1.00
H3       0.55575    0.28520    0.89577   1.00
H3       0.48287    0.30424    0.91189   1.00
C4       0.24980    0.02085    0.75003   1.00
C4       0.25020    -0.02085   0.74997   1.00
C3a      0.21935    0.04254    0.73163   1.00
C3       0.22694    -0.04232   0.77630   1.00
C3       0.27967    0.04232    0.76852   1.00
C3a      0.27403    -0.04254   0.72356   1.00
C2       0.25001    0.10512    0.75008   1.00
C2       0.25002    -0.10512   0.75008   1.00
C3       0.21998    0.08405    0.73189   1.00
C3       0.22680    -0.08363   0.77624   1.00
C3       0.27979    0.08363    0.76842   1.00
C3       0.27350    -0.08405   0.72399   1.00
C5       0.18604    0.02228    0.71091   1.00
H1       0.20846    -0.02691   0.79679   1.00
H1       0.19688    0.10021    0.71769   1.00
H1       0.20838    -0.09901   0.79676   1.00
H1       0.30336    0.09901    0.78274   1.00
H1       0.29152    -0.10021   0.70372   1.00
C5       0.29994    -0.02228   0.69409   1.00
H1       0.30328    0.02691    0.78280   1.00
H2       0.30692    -0.04256   0.66980   1.00
H2       0.28424    0.00269    0.68068   1.00
H2       0.17233    0.04256    0.68967   1.00
H2       0.19719    -0.00269   0.69353   1.00
N1       0.33605    -0.00857   0.71232   1.00
C6       0.36444    -0.03073   0.72725   1.00
C6       0.34744    0.02846    0.71620   1.00
C6       0.39410    -0.00759   0.74133   1.00
C6       0.38330    0.03005    0.73430   1.00
H3       0.36362    -0.06197   0.72825   1.00
H3       0.33059    0.05300    0.70676   1.00
H3       0.42066    -0.01713   0.75515   1.00
H3       0.39972    0.05575    0.74158   1.00
N1       0.15673    0.00857    0.73879   1.00
C6       0.14695    -0.02846   0.74580   1.00
C6       0.13387    0.03073    0.76129   1.00
C6       0.11785    -0.03005   0.77348   1.00
C6       0.10954    0.00759    0.78334   1.00
H3       0.16035    -0.05300   0.73189   1.00
H3       0.13494    0.06197    0.76201   1.00
H3       0.10423    -0.05575   0.78520   1.00
H3       0.08811    0.01713    0.80424   1.00
C4       0.25003    0.24980    0.52085   1.00
C4       0.24997    0.25020    0.47915   1.00
C3a      0.23163    0.21935    0.54254   1.00
C3       0.27630    0.22694    0.45768   1.00
C3       0.26852    0.27967    0.54232   1.00
C3a      0.22356    0.27403    0.45746   1.00
C2       0.25008    0.25001    0.60512   1.00
C2       0.25008    0.25002    0.39488   1.00
C3       0.23189    0.21998    0.58405   1.00
C3       0.27624    0.22680    0.41637   1.00
C3       0.26842    0.27979    0.58363   1.00
C3       0.22399    0.27350    0.41595   1.00
C5       0.21091    0.18604    0.52228   1.00
H1       0.29679    0.20846    0.47309   1.00
H1       0.21769    0.19688    0.60021   1.00
H1       0.29676    0.20838    0.40099   1.00
H1       0.28274    0.30336    0.59901   1.00
H1       0.20372    0.29152    0.39979   1.00
C5       0.19409    0.29994    0.47772   1.00
H1       0.28280    0.30328    0.52691   1.00
H2       0.16980    0.30692    0.45744   1.00
H2       0.18068    0.28424    0.50269   1.00
H2       0.18967    0.17233    0.54256   1.00
H2       0.19353    0.19719    0.49731   1.00
N1       0.21232    0.33605    0.49143   1.00
C6       0.22725    0.36444    0.46927   1.00
C6       0.21620    0.34744    0.52846   1.00
C6       0.24133    0.39410    0.49241   1.00
C6       0.23430    0.38330    0.53005   1.00
H3       0.22825    0.36362    0.43803   1.00
H3       0.20676    0.33059    0.55300   1.00
H3       0.25515    0.42066    0.48287   1.00
H3       0.24158    0.39972    0.55575   1.00
N1       0.23879    0.15673    0.50857   1.00
C6       0.24580    0.14695    0.47154   1.00
C6       0.26129    0.13387    0.53073   1.00
C6       0.27348    0.11785    0.46995   1.00
C6       0.28334    0.10954    0.50759   1.00
H3       0.23189    0.16035    0.44700   1.00
H3       0.26201    0.13494    0.56197   1.00
H3       0.28520    0.10423    0.44425   1.00
H3       0.30424    0.08811    0.51713   1.00
C4       0.25003    0.75020    0.47915   1.00
C4       0.24997    0.74980    0.52085   1.00
C3a      0.23163    0.78065    0.45746   1.00
C3       0.27630    0.77306    0.54232   1.00
C3       0.26852    0.72033    0.45768   1.00
C3a      0.22356    0.72597    0.54254   1.00
C2       0.25008    0.74999    0.39488   1.00
C2       0.25008    0.74998    0.60512   1.00
C3       0.23189    0.78002    0.41595   1.00
C3       0.27624    0.77320    0.58363   1.00
C3       0.26842    0.72021    0.41637   1.00
C3       0.22399    0.72650    0.58405   1.00
C5       0.21091    0.81396    0.47772   1.00
H1       0.29679    0.79154    0.52691   1.00
H1       0.21769    0.80312    0.39979   1.00
H1       0.29676    0.79162    0.59901   1.00
H1       0.28274    0.69664    0.40099   1.00
H1       0.20372    0.70848    0.60021   1.00
C5       0.19409    0.70006    0.52228   1.00
H1       0.28280    0.69672    0.47309   1.00
H2       0.16980    0.69308    0.54256   1.00
H2       0.18068    0.71576    0.49731   1.00
H2       0.18967    0.82767    0.45744   1.00
H2       0.19353    0.80281    0.50269   1.00
N1       0.21232    0.66395    0.50857   1.00
C6       0.22725    0.63556    0.53073   1.00
C6       0.21620    0.65256    0.47154   1.00
C6       0.24133    0.60590    0.50759   1.00
C6       0.23430    0.61670    0.46995   1.00
H3       0.22825    0.63638    0.56197   1.00
H3       0.20676    0.66941    0.44700   1.00
H3       0.25515    0.57934    0.51713   1.00
H3       0.24158    0.60028    0.44425   1.00
N1       0.23879    0.84327    0.49143   1.00
C6       0.24580    0.85305    0.52846   1.00
C6       0.26129    0.86613    0.46927   1.00
C6       0.27348    0.88215    0.53005   1.00
C6       0.28334    0.89046    0.49241   1.00
H3       0.23189    0.83965    0.55300   1.00
H3       0.26201    0.86506    0.43803   1.00
H3       0.28520    0.89577    0.55575   1.00
H3       0.30424    0.91189    0.48287   1.00
C4       0.25020    0.97915    0.25003   1.00
C4       0.24980    1.02085    0.24997   1.00
C3a      0.28065    0.95746    0.23163   1.00
C3       0.27306    1.04232    0.27630   1.00
C3       0.22033    0.95768    0.26852   1.00
C3a      0.22597    1.04254    0.22356   1.00
C2       0.24999    0.89488    0.25008   1.00
C2       0.24998    1.10512    0.25008   1.00
C3       0.28002    0.91595    0.23189   1.00
C3       0.27320    1.08363    0.27624   1.00
C3       0.22021    0.91637    0.26842   1.00
C3       0.22650    1.08405    0.22399   1.00
C5       0.31396    0.97772    0.21091   1.00
H1       0.29154    1.02691    0.29679   1.00
H1       0.30312    0.89979    0.21769   1.00
H1       0.29162    1.09901    0.29676   1.00
H1       0.19664    0.90099    0.28274   1.00
H1       0.20848    1.10021    0.20372   1.00
C5       0.20006    1.02228    0.19409   1.00
H1       0.19672    0.97309    0.28280   1.00
H2       0.19308    1.04256    0.16980   1.00
H2       0.21576    0.99731    0.18068   1.00
H2       0.32767    0.95744    0.18967   1.00
H2       0.30281    1.00269    0.19353   1.00
N1       0.16395    1.00857    0.21232   1.00
C6       0.13556    1.03073    0.22725   1.00
C6       0.15256    0.97154    0.21620   1.00
C6       0.10590    1.00759    0.24133   1.00
C6       0.11670    0.96995    0.23430   1.00
H3       0.13638    1.06197    0.22825   1.00
H3       0.16941    0.94700    0.20676   1.00
H3       0.07934    1.01713    0.25515   1.00
H3       0.10028    0.94425    0.24158   1.00
N1       0.34327    0.99143    0.23879   1.00
C6       0.35305    1.02846    0.24580   1.00
C6       0.36613    0.96927    0.26129   1.00
C6       0.38215    1.03005    0.27348   1.00
C6       0.39046    0.99241    0.28334   1.00
H3       0.33965    1.05300    0.23189   1.00
H3       0.36506    0.93803    0.26201   1.00
H3       0.39577    1.05575    0.28520   1.00
H3       0.41189    0.98287    0.30424   1.00
C4       0.02085    0.75003    0.24980   1.00
C4       -0.02085   0.74997    0.25020   1.00
C3a      0.04254    0.73163    0.21935   1.00
C3       -0.04232   0.77630    0.22694   1.00
C3       0.04232    0.76852    0.27967   1.00
C3a      -0.04254   0.72356    0.27403   1.00
C2       0.10512    0.75008    0.25001   1.00
C2       -0.10512   0.75008    0.25002   1.00
C3       0.08405    0.73189    0.21998   1.00
C3       -0.08363   0.77624    0.22680   1.00
C3       0.08363    0.76842    0.27979   1.00
C3       -0.08405   0.72399    0.27350   1.00
C5       0.02228    0.71091    0.18604   1.00
H1       -0.02691   0.79679    0.20846   1.00
H1       0.10021    0.71769    0.19688   1.00
H1       -0.09901   0.79676    0.20838   1.00
H1       0.09901    0.78274    0.30336   1.00
H1       -0.10021   0.70372    0.29152   1.00
C5       -0.02228   0.69409    0.29994   1.00
H1       0.02691    0.78280    0.30328   1.00
H2       -0.04256   0.66980    0.30692   1.00
H2       0.00269    0.68068    0.28424   1.00
H2       0.04256    0.68967    0.17233   1.00
H2       -0.00269   0.69353    0.19719   1.00
N1       -0.00857   0.71232    0.33605   1.00
C6       -0.03073   0.72725    0.36444   1.00
C6       0.02846    0.71620    0.34744   1.00
C6       -0.00759   0.74133    0.39410   1.00
C6       0.03005    0.73430    0.38330   1.00
H3       -0.06197   0.72825    0.36362   1.00
H3       0.05300    0.70676    0.33059   1.00
H3       -0.01713   0.75515    0.42066   1.00
H3       0.05575    0.74158    0.39972   1.00
N1       0.00857    0.73879    0.15673   1.00
C6       -0.02846   0.74580    0.14695   1.00
C6       0.03073    0.76129    0.13387   1.00
C6       -0.03005   0.77348    0.11785   1.00
C6       0.00759    0.78334    0.10954   1.00
H3       -0.05300   0.73189    0.16035   1.00
H3       0.06197    0.76201    0.13494   1.00
H3       -0.05575   0.78520    0.10423   1.00
H3       0.01713    0.80424    0.08811   1.00
C4       0.47915    0.75003    0.25020   1.00
C4       0.52085    0.74997    0.24980   1.00
C3a      0.45746    0.73163    0.28065   1.00
C3       0.54232    0.77630    0.27306   1.00
C3       0.45768    0.76852    0.22033   1.00
C3a      0.54254    0.72356    0.22597   1.00
C2       0.39488    0.75008    0.24999   1.00
C2       0.60512    0.75008    0.24998   1.00
C3       0.41595    0.73189    0.28002   1.00
C3       0.58363    0.77624    0.27320   1.00
C3       0.41637    0.76842    0.22021   1.00
C3       0.58405    0.72399    0.22650   1.00
C5       0.47772    0.71091    0.31396   1.00
H1       0.52691    0.79679    0.29154   1.00
H1       0.39979    0.71769    0.30312   1.00
H1       0.59901    0.79676    0.29162   1.00
H1       0.40099    0.78274    0.19664   1.00
H1       0.60021    0.70372    0.20848   1.00
C5       0.52228    0.69409    0.20006   1.00
H1       0.47309    0.78280    0.19672   1.00
H2       0.54256    0.66980    0.19308   1.00
H2       0.49731    0.68068    0.21576   1.00
H2       0.45744    0.68967    0.32767   1.00
H2       0.50269    0.69353    0.30281   1.00
N1       0.50857    0.71232    0.16395   1.00
C6       0.53073    0.72725    0.13556   1.00
C6       0.47154    0.71620    0.15256   1.00
C6       0.50759    0.74133    0.10590   1.00
C6       0.46995    0.73430    0.11670   1.00
H3       0.56197    0.72825    0.13638   1.00
H3       0.44700    0.70676    0.16941   1.00
H3       0.51713    0.75515    0.07934   1.00
H3       0.44425    0.74158    0.10028   1.00
N1       0.49143    0.73879    0.34327   1.00
C6       0.52846    0.74580    0.35305   1.00
C6       0.46927    0.76129    0.36613   1.00
C6       0.53005    0.77348    0.38215   1.00
C6       0.49241    0.78334    0.39046   1.00
H3       0.55300    0.73189    0.33965   1.00
H3       0.43803    0.76201    0.36506   1.00
H3       0.55575    0.78520    0.39577   1.00
H3       0.48287    0.80424    0.41189   1.00
C4       0.24980    0.52085    0.25003   1.00
C4       0.25020    0.47915    0.24997   1.00
C3a      0.21935    0.54254    0.23163   1.00
C3       0.22694    0.45768    0.27630   1.00
C3       0.27967    0.54232    0.26852   1.00
C3a      0.27403    0.45746    0.22356   1.00
C2       0.25001    0.60512    0.25008   1.00
C2       0.25002    0.39488    0.25008   1.00
C3       0.21998    0.58405    0.23189   1.00
C3       0.22680    0.41637    0.27624   1.00
C3       0.27979    0.58363    0.26842   1.00
C3       0.27350    0.41595    0.22399   1.00
C5       0.18604    0.52228    0.21091   1.00
H1       0.20846    0.47309    0.29679   1.00
H1       0.19688    0.60021    0.21769   1.00
H1       0.20838    0.40099    0.29676   1.00
H1       0.30336    0.59901    0.28274   1.00
H1       0.29152    0.39979    0.20372   1.00
C5       0.29994    0.47772    0.19409   1.00
H1       0.30328    0.52691    0.28280   1.00
H2       0.30692    0.45744    0.16980   1.00
H2       0.28424    0.50269    0.18068   1.00
H2       0.17233    0.54256    0.18967   1.00
H2       0.19719    0.49731    0.19353   1.00
N1       0.33605    0.49143    0.21232   1.00
C6       0.36444    0.46927    0.22725   1.00
C6       0.34744    0.52846    0.21620   1.00
C6       0.39410    0.49241    0.24133   1.00
C6       0.38330    0.53005    0.23430   1.00
H3       0.36362    0.43803    0.22825   1.00
H3       0.33059    0.55300    0.20676   1.00
H3       0.42066    0.48287    0.25515   1.00
H3       0.39972    0.55575    0.24158   1.00
N1       0.15673    0.50857    0.23879   1.00
C6       0.14695    0.47154    0.24580   1.00
C6       0.13387    0.53073    0.26129   1.00
C6       0.11785    0.46995    0.27348   1.00
C6       0.10954    0.50759    0.28334   1.00
H3       0.16035    0.44700    0.23189   1.00
H3       0.13494    0.56197    0.26201   1.00
H3       0.10423    0.44425    0.28520   1.00
H3       0.08811    0.51713    0.30424   1.00
C4       0.25003    0.74980    0.02085   1.00
C4       0.24997    0.75020    -0.02085   1.00
C3a      0.23163    0.71935    0.04254   1.00
C3       0.27630    0.72694    -0.04232   1.00
C3       0.26852    0.77967    0.04232   1.00
C3a      0.22356    0.77403    -0.04254   1.00
C2       0.25008    0.75001    0.10512   1.00
C2       0.25008    0.75002    -0.10512   1.00
C3       0.23189    0.71998    0.08405   1.00
C3       0.27624    0.72680    -0.08363   1.00
C3       0.26842    0.77979    0.08363   1.00
C3       0.22399    0.77350    -0.08405   1.00
C5       0.21091    0.68604    0.02228   1.00
H1       0.29679    0.70846    -0.02691   1.00
H1       0.21769    0.69688    0.10021   1.00
H1       0.29676    0.70838    -0.09901   1.00
H1       0.28274    0.80336    0.09901   1.00
H1       0.20372    0.79152    -0.10021   1.00
C5       0.19409    0.79994    -0.02228   1.00
H1       0.28280    0.80328    0.02691   1.00
H2       0.16980    0.80692    -0.04256   1.00
H2       0.18068    0.78424    0.00269   1.00
H2       0.18967    0.67233    0.04256   1.00
H2       0.19353    0.69719    -0.00269   1.00
N1       0.21232    0.83605    -0.00857   1.00
C6       0.22725    0.86444    -0.03073   1.00
C6       0.21620    0.84744    0.02846   1.00
C6       0.24133    0.89410    -0.00759   1.00
C6       0.23430    0.88330    0.03005   1.00
H3       0.22825    0.86362    -0.06197   1.00
H3       0.20676    0.83059    0.05300   1.00
H3       0.25515    0.92066    -0.01713   1.00
H3       0.24158    0.89972    0.05575   1.00
N1       0.23879    0.65673    0.00857   1.00
C6       0.24580    0.64695    -0.02846   1.00
C6       0.26129    0.63387    0.03073   1.00
C6       0.27348    0.61785    -0.03005   1.00
C6       0.28334    0.60954    0.00759   1.00
H3       0.23189    0.66035    -0.05300   1.00
H3       0.26201    0.63494    0.06197   1.00
H3       0.28520    0.60423    -0.05575   1.00
H3       0.30424    0.58811    0.01713   1.00
C4       0.75003    0.25020    0.47915   1.00
C4       0.74997    0.24980    0.52085   1.00
C3a      0.73163    0.28065    0.45746   1.00
C3       0.77630    0.27306    0.54232   1.00
C3       0.76852    0.22033    0.45768   1.00
C3a      0.72356    0.22597    0.54254   1.00
C2       0.75008    0.24999    0.39488   1.00
C2       0.75008    0.24998    0.60512   1.00
C3       0.73189    0.28002    0.41595   1.00
C3       0.77624    0.27320    0.58363   1.00
C3       0.76842    0.22021    0.41637   1.00
C3       0.72399    0.22650    0.58405   1.00
C5       0.71091    0.31396    0.47772   1.00
H1       0.79679    0.29154    0.52691   1.00
H1       0.71769    0.30312    0.39979   1.00
H1       0.79676    0.29162    0.59901   1.00
H1       0.78274    0.19664    0.40099   1.00
H1       0.70372    0.20848    0.60021   1.00
C5       0.69409    0.20006    0.52228   1.00
H1       0.78280    0.19672    0.47309   1.00
H2       0.66980    0.19308    0.54256   1.00
H2       0.68068    0.21576    0.49731   1.00
H2       0.68967    0.32767    0.45744   1.00
H2       0.69353    0.30281    0.50269   1.00
N1       0.71232    0.16395    0.50857   1.00
C6       0.72725    0.13556    0.53073   1.00
C6       0.71620    0.15256    0.47154   1.00
C6       0.74133    0.10590    0.50759   1.00
C6       0.73430    0.11670    0.46995   1.00
H3       0.72825    0.13638    0.56197   1.00
H3       0.70676    0.16941    0.44700   1.00
H3       0.75515    0.07934    0.51713   1.00
H3       0.74158    0.10028    0.44425   1.00
N1       0.73879    0.34327    0.49143   1.00
C6       0.74580    0.35305    0.52846   1.00
C6       0.76129    0.36613    0.46927   1.00
C6       0.77348    0.38215    0.53005   1.00
C6       0.78334    0.39046    0.49241   1.00
H3       0.73189    0.33965    0.55300   1.00
H3       0.76201    0.36506    0.43803   1.00
H3       0.78520    0.39577    0.55575   1.00
H3       0.80424    0.41189    0.48287   1.00
C4       0.75020    0.47915    0.25003   1.00
C4       0.74980    0.52085    0.24997   1.00
C3a      0.78065    0.45746    0.23163   1.00
C3       0.77306    0.54232    0.27630   1.00
C3       0.72033    0.45768    0.26852   1.00
C3a      0.72597    0.54254    0.22356   1.00
C2       0.74999    0.39488    0.25008   1.00
C2       0.74998    0.60512    0.25008   1.00
C3       0.78002    0.41595    0.23189   1.00
C3       0.77320    0.58363    0.27624   1.00
C3       0.72021    0.41637    0.26842   1.00
C3       0.72650    0.58405    0.22399   1.00
C5       0.81396    0.47772    0.21091   1.00
H1       0.79154    0.52691    0.29679   1.00
H1       0.80312    0.39979    0.21769   1.00
H1       0.79162    0.59901    0.29676   1.00
H1       0.69664    0.40099    0.28274   1.00
H1       0.70848    0.60021    0.20372   1.00
C5       0.70006    0.52228    0.19409   1.00
H1       0.69672    0.47309    0.28280   1.00
H2       0.69308    0.54256    0.16980   1.00
H2       0.71576    0.49731    0.18068   1.00
H2       0.82767    0.45744    0.18967   1.00
H2       0.80281    0.50269    0.19353   1.00
N1       0.66395    0.50857    0.21232   1.00
C6       0.63556    0.53073    0.22725   1.00
C6       0.65256    0.47154    0.21620   1.00
C6       0.60590    0.50759    0.24133   1.00
C6       0.61670    0.46995    0.23430   1.00
H3       0.63638    0.56197    0.22825   1.00
H3       0.66941    0.44700    0.20676   1.00
H3       0.57934    0.51713    0.25515   1.00
H3       0.60028    0.44425    0.24158   1.00
N1       0.84327    0.49143    0.23879   1.00
C6       0.85305    0.52846    0.24580   1.00
C6       0.86613    0.46927    0.26129   1.00
C6       0.88215    0.53005    0.27348   1.00
C6       0.89046    0.49241    0.28334   1.00
H3       0.83965    0.55300    0.23189   1.00
H3       0.86506    0.43803    0.26201   1.00
H3       0.89577    0.55575    0.28520   1.00
H3       0.91189    0.48287    0.30424   1.00
C4       0.52085    0.25003    0.24980   1.00
C4       0.47915    0.24997    0.25020   1.00
C3a      0.54254    0.23163    0.21935   1.00
C3       0.45768    0.27630    0.22694   1.00
C3       0.54232    0.26852    0.27967   1.00
C3a      0.45746    0.22356    0.27403   1.00
C2       0.60512    0.25008    0.25001   1.00
C2       0.39488    0.25008    0.25002   1.00
C3       0.58405    0.23189    0.21998   1.00
C3       0.41637    0.27624    0.22680   1.00
C3       0.58363    0.26842    0.27979   1.00
C3       0.41595    0.22399    0.27350   1.00
C5       0.52228    0.21091    0.18604   1.00
H1       0.47309    0.29679    0.20846   1.00
H1       0.60021    0.21769    0.19688   1.00
H1       0.40099    0.29676    0.20838   1.00
H1       0.59901    0.28274    0.30336   1.00
H1       0.39979    0.20372    0.29152   1.00
C5       0.47772    0.19409    0.29994   1.00
H1       0.52691    0.28280    0.30328   1.00
H2       0.45744    0.16980    0.30692   1.00
H2       0.50269    0.18068    0.28424   1.00
H2       0.54256    0.18967    0.17233   1.00
H2       0.49731    0.19353    0.19719   1.00
N1       0.49143    0.21232    0.33605   1.00
C6       0.46927    0.22725    0.36444   1.00
C6       0.52846    0.21620    0.34744   1.00
C6       0.49241    0.24133    0.39410   1.00
C6       0.53005    0.23430    0.38330   1.00
H3       0.43803    0.22825    0.36362   1.00
H3       0.55300    0.20676    0.33059   1.00
H3       0.48287    0.25515    0.42066   1.00
H3       0.55575    0.24158    0.39972   1.00
N1       0.50857    0.23879    0.15673   1.00
C6       0.47154    0.24580    0.14695   1.00
C6       0.53073    0.26129    0.13387   1.00
C6       0.46995    0.27348    0.11785   1.00
C6       0.50759    0.28334    0.10954   1.00
H3       0.44700    0.23189    0.16035   1.00
H3       0.56197    0.26201    0.13494   1.00
H3       0.44425    0.28520    0.10423   1.00
H3       0.51713    0.30424    0.08811   1.00
C4       0.97915    0.25003    0.25020   1.00
C4       1.02085    0.24997    0.24980   1.00
C3a      0.95746    0.23163    0.28065   1.00
C3       1.04232    0.27630    0.27306   1.00
C3       0.95768    0.26852    0.22033   1.00
C3a      1.04254    0.22356    0.22597   1.00
C2       0.89488    0.25008    0.24999   1.00
C2       1.10512    0.25008    0.24998   1.00
C3       0.91595    0.23189    0.28002   1.00
C3       1.08363    0.27624    0.27320   1.00
C3       0.91637    0.26842    0.22021   1.00
C3       1.08405    0.22399    0.22650   1.00
C5       0.97772    0.21091    0.31396   1.00
H1       1.02691    0.29679    0.29154   1.00
H1       0.89979    0.21769    0.30312   1.00
H1       1.09901    0.29676    0.29162   1.00
H1       0.90099    0.28274    0.19664   1.00
H1       1.10021    0.20372    0.20848   1.00
C5       1.02228    0.19409    0.20006   1.00
H1       0.97309    0.28280    0.19672   1.00
H2       1.04256    0.16980    0.19308   1.00
H2       0.99731    0.18068    0.21576   1.00
H2       0.95744    0.18967    0.32767   1.00
H2       1.00269    0.19353    0.30281   1.00
N1       1.00857    0.21232    0.16395   1.00
C6       1.03073    0.22725    0.13556   1.00
C6       0.97154    0.21620    0.15256   1.00
C6       1.00759    0.24133    0.10590   1.00
C6       0.96995    0.23430    0.11670   1.00
H3       1.06197    0.22825    0.13638   1.00
H3       0.94700    0.20676    0.16941   1.00
H3       1.01713    0.25515    0.07934   1.00
H3       0.94425    0.24158    0.10028   1.00
N1       0.99143    0.23879    0.34327   1.00
C6       1.02846    0.24580    0.35305   1.00
C6       0.96927    0.26129    0.36613   1.00
C6       1.03005    0.27348    0.38215   1.00
C6       0.99241    0.28334    0.39046   1.00
H3       1.05300    0.23189    0.33965   1.00
H3       0.93803    0.26201    0.36506   1.00
H3       1.05575    0.28520    0.39577   1.00
H3       0.98287    0.30424    0.41189   1.00
C4       0.74980    0.02085    0.25003   1.00
C4       0.75020    -0.02085   0.24997   1.00
C3a      0.71935    0.04254    0.23163   1.00
C3       0.72694    -0.04232   0.27630   1.00
C3       0.77967    0.04232    0.26852   1.00
C3a      0.77403    -0.04254   0.22356   1.00
C2       0.75001    0.10512    0.25008   1.00
C2       0.75002    -0.10512   0.25008   1.00
C3       0.71998    0.08405    0.23189   1.00
C3       0.72680    -0.08363   0.27624   1.00
C3       0.77979    0.08363    0.26842   1.00
C3       0.77350    -0.08405   0.22399   1.00
C5       0.68604    0.02228    0.21091   1.00
H1       0.70846    -0.02691   0.29679   1.00
H1       0.69688    0.10021    0.21769   1.00
H1       0.70838    -0.09901   0.29676   1.00
H1       0.80336    0.09901    0.28274   1.00
H1       0.79152    -0.10021   0.20372   1.00
C5       0.79994    -0.02228   0.19409   1.00
H1       0.80328    0.02691    0.28280   1.00
H2       0.80692    -0.04256   0.16980   1.00
H2       0.78424    0.00269    0.18068   1.00
H2       0.67233    0.04256    0.18967   1.00
H2       0.69719    -0.00269   0.19353   1.00
N1       0.83605    -0.00857   0.21232   1.00
C6       0.86444    -0.03073   0.22725   1.00
C6       0.84744    0.02846    0.21620   1.00
C6       0.89410    -0.00759   0.24133   1.00
C6       0.88330    0.03005    0.23430   1.00
H3       0.86362    -0.06197   0.22825   1.00
H3       0.83059    0.05300    0.20676   1.00
H3       0.92066    -0.01713   0.25515   1.00
H3       0.89972    0.05575    0.24158   1.00
N1       0.65673    0.00857    0.23879   1.00
C6       0.64695    -0.02846   0.24580   1.00
C6       0.63387    0.03073    0.26129   1.00
C6       0.61785    -0.03005   0.27348   1.00
C6       0.60954    0.00759    0.28334   1.00
H3       0.66035    -0.05300   0.23189   1.00
H3       0.63494    0.06197    0.26201   1.00
H3       0.60423    -0.05575   0.28520   1.00
H3       0.58811    0.01713    0.30424   1.00
C4       0.75003    0.24980    0.02085   1.00
C4       0.74997    0.25020    -0.02085   1.00
C3a      0.73163    0.21935    0.04254   1.00
C3       0.77630    0.22694    -0.04232   1.00
C3       0.76852    0.27967    0.04232   1.00
C3a      0.72356    0.27403    -0.04254   1.00
C2       0.75008    0.25001    0.10512   1.00
C2       0.75008    0.25002    -0.10512   1.00
C3       0.73189    0.21998    0.08405   1.00
C3       0.77624    0.22680    -0.08363   1.00
C3       0.76842    0.27979    0.08363   1.00
C3       0.72399    0.27350    -0.08405   1.00
C5       0.71091    0.18604    0.02228   1.00
H1       0.79679    0.20846    -0.02691   1.00
H1       0.71769    0.19688    0.10021   1.00
H1       0.79676    0.20838    -0.09901   1.00
H1       0.78274    0.30336    0.09901   1.00
H1       0.70372    0.29152    -0.10021   1.00
C5       0.69409    0.29994    -0.02228   1.00
H1       0.78280    0.30328    0.02691   1.00
H2       0.66980    0.30692    -0.04256   1.00
H2       0.68068    0.28424    0.00269   1.00
H2       0.68967    0.17233    0.04256   1.00
H2       0.69353    0.19719    -0.00269   1.00
N1       0.71232    0.33605    -0.00857   1.00
C6       0.72725    0.36444    -0.03073   1.00
C6       0.71620    0.34744    0.02846   1.00
C6       0.74133    0.39410    -0.00759   1.00
C6       0.73430    0.38330    0.03005   1.00
H3       0.72825    0.36362    -0.06197   1.00
H3       0.70676    0.33059    0.05300   1.00
H3       0.75515    0.42066    -0.01713   1.00
H3       0.74158    0.39972    0.05575   1.00
N1       0.73879    0.15673    0.00857   1.00
C6       0.74580    0.14695    -0.02846   1.00
C6       0.76129    0.13387    0.03073   1.00
C6       0.77348    0.11785    -0.03005   1.00
C6       0.78334    0.10954    0.00759   1.00
H3       0.73189    0.16035    -0.05300   1.00
H3       0.76201    0.13494    0.06197   1.00
H3       0.78520    0.10423    -0.05575   1.00
H3       0.80424    0.08811    0.01713   1.00
