data_IRMOF10_SG202_Ligand11_label_s.

_audit_creation_method             'generated by an auxiliary program of Tobunporous'

_symmetry_space_group_name_H-M     'P 1'
_symmetry_Int_Tables_number        1
_symmetry_cell_setting             triclinic

_cell_length_a                    34.2800
_cell_length_b                    34.2800
_cell_length_c                    34.2800
_cell_angle_alpha                 90.0000
_cell_angle_beta                  90.0000
_cell_angle_gamma                 90.0000

loop_
_atom_site_label
_atom_site_fract_x
_atom_site_fract_y
_atom_site_fract_z
_atom_site_occupancy
O1       0.75000    0.75000    0.75000   1.00
Zn1      0.71720    0.78280    0.78280   1.00
Zn1      0.78280    0.71720    0.78280   1.00
Zn1      0.78280    0.78280    0.71720   1.00
Zn1      0.71720    0.71720    0.71720   1.00
O2       0.72650    0.77350    0.83820   1.00
O2       0.72650    0.83820    0.77350   1.00
O2       0.66180    0.77350    0.77350   1.00
O2       0.77350    0.72650    0.83820   1.00
O2       0.83820    0.72650    0.77350   1.00
O2       0.77350    0.66180    0.77350   1.00
O2       0.77350    0.83820    0.72650   1.00
O2       0.83820    0.77350    0.72650   1.00
O2       0.77350    0.77350    0.66180   1.00
O2       0.66180    0.72650    0.72650   1.00
O2       0.72650    0.66180    0.72650   1.00
O2       0.72650    0.72650    0.66180   1.00
C1       0.75000    0.75000    0.85520   1.00
C1       0.75000    0.85520    0.75000   1.00
C1       0.64480    0.75000    0.75000   1.00
C1       0.85520    0.75000    0.75000   1.00
C1       0.75000    0.64480    0.75000   1.00
C1       0.75000    0.75000    0.64480   1.00
O1       0.25000    0.25000    0.75000   1.00
Zn1      0.21720    0.28280    0.78280   1.00
Zn1      0.28280    0.21720    0.78280   1.00
Zn1      0.28280    0.28280    0.71720   1.00
Zn1      0.21720    0.21720    0.71720   1.00
O2       0.22650    0.27350    0.83820   1.00
O2       0.22650    0.33820    0.77350   1.00
O2       0.16180    0.27350    0.77350   1.00
O2       0.27350    0.22650    0.83820   1.00
O2       0.33820    0.22650    0.77350   1.00
O2       0.27350    0.16180    0.77350   1.00
O2       0.27350    0.33820    0.72650   1.00
O2       0.33820    0.27350    0.72650   1.00
O2       0.27350    0.27350    0.66180   1.00
O2       0.16180    0.22650    0.72650   1.00
O2       0.22650    0.16180    0.72650   1.00
O2       0.22650    0.22650    0.66180   1.00
C1       0.25000    0.25000    0.85520   1.00
C1       0.25000    0.35520    0.75000   1.00
C1       0.14480    0.25000    0.75000   1.00
C1       0.35520    0.25000    0.75000   1.00
C1       0.25000    0.14480    0.75000   1.00
C1       0.25000    0.25000    0.64480   1.00
O1       0.25000    0.75000    0.25000   1.00
Zn1      0.21720    0.78280    0.28280   1.00
Zn1      0.28280    0.71720    0.28280   1.00
Zn1      0.28280    0.78280    0.21720   1.00
Zn1      0.21720    0.71720    0.21720   1.00
O2       0.22650    0.77350    0.33820   1.00
O2       0.22650    0.83820    0.27350   1.00
O2       0.16180    0.77350    0.27350   1.00
O2       0.27350    0.72650    0.33820   1.00
O2       0.33820    0.72650    0.27350   1.00
O2       0.27350    0.66180    0.27350   1.00
O2       0.27350    0.83820    0.22650   1.00
O2       0.33820    0.77350    0.22650   1.00
O2       0.27350    0.77350    0.16180   1.00
O2       0.16180    0.72650    0.22650   1.00
O2       0.22650    0.66180    0.22650   1.00
O2       0.22650    0.72650    0.16180   1.00
C1       0.25000    0.75000    0.35520   1.00
C1       0.25000    0.85520    0.25000   1.00
C1       0.14480    0.75000    0.25000   1.00
C1       0.35520    0.75000    0.25000   1.00
C1       0.25000    0.64480    0.25000   1.00
C1       0.25000    0.75000    0.14480   1.00
O1       0.75000    0.25000    0.25000   1.00
Zn1      0.71720    0.28280    0.28280   1.00
Zn1      0.78280    0.21720    0.28280   1.00
Zn1      0.78280    0.28280    0.21720   1.00
Zn1      0.71720    0.21720    0.21720   1.00
O2       0.72650    0.27350    0.33820   1.00
O2       0.72650    0.33820    0.27350   1.00
O2       0.66180    0.27350    0.27350   1.00
O2       0.77350    0.22650    0.33820   1.00
O2       0.83820    0.22650    0.27350   1.00
O2       0.77350    0.16180    0.27350   1.00
O2       0.77350    0.33820    0.22650   1.00
O2       0.83820    0.27350    0.22650   1.00
O2       0.77350    0.27350    0.16180   1.00
O2       0.66180    0.22650    0.22650   1.00
O2       0.72650    0.16180    0.22650   1.00
O2       0.72650    0.22650    0.16180   1.00
C1       0.75000    0.25000    0.35520   1.00
C1       0.75000    0.35520    0.25000   1.00
C1       0.64480    0.25000    0.25000   1.00
C1       0.85520    0.25000    0.25000   1.00
C1       0.75000    0.14480    0.25000   1.00
C1       0.75000    0.25000    0.14480   1.00
O1       0.25000    0.25000    0.25000   1.00
Zn1      0.28280    0.21720    0.21720   1.00
Zn1      0.21720    0.28280    0.21720   1.00
Zn1      0.21720    0.21720    0.28280   1.00
Zn1      0.28280    0.28280    0.28280   1.00
O2       0.27350    0.22650    0.16180   1.00
O2       0.27350    0.16180    0.22650   1.00
O2       0.33820    0.22650    0.22650   1.00
O2       0.22650    0.27350    0.16180   1.00
O2       0.16180    0.27350    0.22650   1.00
O2       0.22650    0.33820    0.22650   1.00
O2       0.22650    0.16180    0.27350   1.00
O2       0.16180    0.22650    0.27350   1.00
O2       0.22650    0.22650    0.33820   1.00
O2       0.33820    0.27350    0.27350   1.00
O2       0.27350    0.33820    0.27350   1.00
O2       0.27350    0.27350    0.33820   1.00
C1       0.25000    0.25000    0.14480   1.00
C1       0.25000    0.14480    0.25000   1.00
C1       0.35520    0.25000    0.25000   1.00
C1       0.14480    0.25000    0.25000   1.00
C1       0.25000    0.35520    0.25000   1.00
C1       0.25000    0.25000    0.35520   1.00
O1       0.75000    0.75000    0.25000   1.00
Zn1      0.78280    0.71720    0.21720   1.00
Zn1      0.71720    0.78280    0.21720   1.00
Zn1      0.71720    0.71720    0.28280   1.00
Zn1      0.78280    0.78280    0.28280   1.00
O2       0.77350    0.72650    0.16180   1.00
O2       0.77350    0.66180    0.22650   1.00
O2       0.83820    0.72650    0.22650   1.00
O2       0.72650    0.77350    0.16180   1.00
O2       0.66180    0.77350    0.22650   1.00
O2       0.72650    0.83820    0.22650   1.00
O2       0.72650    0.66180    0.27350   1.00
O2       0.66180    0.72650    0.27350   1.00
O2       0.72650    0.72650    0.33820   1.00
O2       0.83820    0.77350    0.27350   1.00
O2       0.77350    0.83820    0.27350   1.00
O2       0.77350    0.77350    0.33820   1.00
C1       0.75000    0.75000    0.14480   1.00
C1       0.75000    0.64480    0.25000   1.00
C1       0.85520    0.75000    0.25000   1.00
C1       0.64480    0.75000    0.25000   1.00
C1       0.75000    0.85520    0.25000   1.00
C1       0.75000    0.75000    0.35520   1.00
O1       0.75000    0.25000    0.75000   1.00
Zn1      0.78280    0.21720    0.71720   1.00
Zn1      0.71720    0.28280    0.71720   1.00
Zn1      0.71720    0.21720    0.78280   1.00
Zn1      0.78280    0.28280    0.78280   1.00
O2       0.77350    0.22650    0.66180   1.00
O2       0.77350    0.16180    0.72650   1.00
O2       0.83820    0.22650    0.72650   1.00
O2       0.72650    0.27350    0.66180   1.00
O2       0.66180    0.27350    0.72650   1.00
O2       0.72650    0.33820    0.72650   1.00
O2       0.72650    0.16180    0.77350   1.00
O2       0.66180    0.22650    0.77350   1.00
O2       0.72650    0.22650    0.83820   1.00
O2       0.83820    0.27350    0.77350   1.00
O2       0.77350    0.33820    0.77350   1.00
O2       0.77350    0.27350    0.83820   1.00
C1       0.75000    0.25000    0.64480   1.00
C1       0.75000    0.14480    0.75000   1.00
C1       0.85520    0.25000    0.75000   1.00
C1       0.64480    0.25000    0.75000   1.00
C1       0.75000    0.35520    0.75000   1.00
C1       0.75000    0.25000    0.85520   1.00
O1       0.25000    0.75000    0.75000   1.00
Zn1      0.28280    0.71720    0.71720   1.00
Zn1      0.21720    0.78280    0.71720   1.00
Zn1      0.21720    0.71720    0.78280   1.00
Zn1      0.28280    0.78280    0.78280   1.00
O2       0.27350    0.72650    0.66180   1.00
O2       0.27350    0.66180    0.72650   1.00
O2       0.33820    0.72650    0.72650   1.00
O2       0.22650    0.77350    0.66180   1.00
O2       0.16180    0.77350    0.72650   1.00
O2       0.22650    0.83820    0.72650   1.00
O2       0.22650    0.66180    0.77350   1.00
O2       0.16180    0.72650    0.77350   1.00
O2       0.22650    0.72650    0.83820   1.00
O2       0.33820    0.77350    0.77350   1.00
O2       0.27350    0.83820    0.77350   1.00
O2       0.27350    0.77350    0.83820   1.00
C1       0.25000    0.75000    0.64480   1.00
C1       0.25000    0.64480    0.75000   1.00
C1       0.35520    0.75000    0.75000   1.00
C1       0.14480    0.75000    0.75000   1.00
C1       0.25000    0.85520    0.75000   1.00
C1       0.25000    0.75000    0.85520   1.00
C4       0.74980    0.75003    0.97915   1.00
C4       0.75020    0.74997    1.02085   1.00
C3a      0.71935    0.73163    0.95746   1.00
C3       0.72694    0.77630    1.04232   1.00
C3       0.77967    0.76852    0.95768   1.00
C3a      0.77403    0.72356    1.04254   1.00
C2       0.75001    0.75008    0.89488   1.00
C2       0.75002    0.75008    1.10512   1.00
C3       0.71998    0.73189    0.91595   1.00
C3       0.72680    0.77624    1.08363   1.00
C3       0.77979    0.76842    0.91637   1.00
C3       0.77350    0.72399    1.08405   1.00
C5       0.68604    0.71091    0.97772   1.00
H1       0.70846    0.79679    1.02691   1.00
H1       0.69688    0.71769    0.89979   1.00
H1       0.70838    0.79676    1.09901   1.00
H1       0.80336    0.78274    0.90099   1.00
H1       0.79152    0.70372    1.10021   1.00
C5       0.79994    0.69409    1.02228   1.00
H1       0.80328    0.78280    0.97309   1.00
H2       0.80692    0.66980    1.04256   1.00
H2       0.78424    0.68068    0.99731   1.00
H2       0.67233    0.68967    0.95744   1.00
H2       0.69719    0.69353    1.00269   1.00
N1       0.83605    0.71232    1.00857   1.00
C6       0.86444    0.72725    1.03073   1.00
C6       0.84744    0.71620    0.97154   1.00
C6       0.89410    0.74133    1.00759   1.00
C6       0.88330    0.73430    0.96995   1.00
H3       0.86362    0.72825    1.06197   1.00
H3       0.83059    0.70676    0.94700   1.00
H3       0.92066    0.75515    1.01713   1.00
H3       0.89972    0.74158    0.94425   1.00
N1       0.65673    0.73879    0.99143   1.00
C6       0.64695    0.74580    1.02846   1.00
C6       0.63387    0.76129    0.96927   1.00
C6       0.61785    0.77348    1.03005   1.00
C6       0.60954    0.78334    0.99241   1.00
H3       0.66035    0.73189    1.05300   1.00
H3       0.63494    0.76201    0.93803   1.00
H3       0.60423    0.78520    1.05575   1.00
H3       0.58811    0.80424    0.98287   1.00
C4       0.75003    0.97915    0.74980   1.00
C4       0.74997    1.02085    0.75020   1.00
C3a      0.73163    0.95746    0.71935   1.00
C3       0.77630    1.04232    0.72694   1.00
C3       0.76852    0.95768    0.77967   1.00
C3a      0.72356    1.04254    0.77403   1.00
C2       0.75008    0.89488    0.75001   1.00
C2       0.75008    1.10512    0.75002   1.00
C3       0.73189    0.91595    0.71998   1.00
C3       0.77624    1.08363    0.72680   1.00
C3       0.76842    0.91637    0.77979   1.00
C3       0.72399    1.08405    0.77350   1.00
C5       0.71091    0.97772    0.68604   1.00
H1       0.79679    1.02691    0.70846   1.00
H1       0.71769    0.89979    0.69688   1.00
H1       0.79676    1.09901    0.70838   1.00
H1       0.78274    0.90099    0.80336   1.00
H1       0.70372    1.10021    0.79152   1.00
C5       0.69409    1.02228    0.79994   1.00
H1       0.78280    0.97309    0.80328   1.00
H2       0.66980    1.04256    0.80692   1.00
H2       0.68068    0.99731    0.78424   1.00
H2       0.68967    0.95744    0.67233   1.00
H2       0.69353    1.00269    0.69719   1.00
N1       0.71232    1.00857    0.83605   1.00
C6       0.72725    1.03073    0.86444   1.00
C6       0.71620    0.97154    0.84744   1.00
C6       0.74133    1.00759    0.89410   1.00
C6       0.73430    0.96995    0.88330   1.00
H3       0.72825    1.06197    0.86362   1.00
H3       0.70676    0.94700    0.83059   1.00
H3       0.75515    1.01713    0.92066   1.00
H3       0.74158    0.94425    0.89972   1.00
N1       0.73879    0.99143    0.65673   1.00
C6       0.74580    1.02846    0.64695   1.00
C6       0.76129    0.96927    0.63387   1.00
C6       0.77348    1.03005    0.61785   1.00
C6       0.78334    0.99241    0.60954   1.00
H3       0.73189    1.05300    0.66035   1.00
H3       0.76201    0.93803    0.63494   1.00
H3       0.78520    1.05575    0.60423   1.00
H3       0.80424    0.98287    0.58811   1.00
C4       0.52085    0.74980    0.74997   1.00
C4       0.47915    0.75020    0.75003   1.00
C3a      0.54254    0.71935    0.76837   1.00
C3       0.45768    0.72694    0.72370   1.00
C3       0.54232    0.77967    0.73148   1.00
C3a      0.45746    0.77403    0.77644   1.00
C2       0.60512    0.75001    0.74992   1.00
C2       0.39488    0.75002    0.74992   1.00
C3       0.58405    0.71998    0.76811   1.00
C3       0.41637    0.72680    0.72376   1.00
C3       0.58363    0.77979    0.73158   1.00
C3       0.41595    0.77350    0.77601   1.00
C5       0.52228    0.68604    0.78909   1.00
H1       0.47309    0.70846    0.70321   1.00
H1       0.60021    0.69688    0.78231   1.00
H1       0.40099    0.70838    0.70324   1.00
H1       0.59901    0.80336    0.71726   1.00
H1       0.39979    0.79152    0.79628   1.00
C5       0.47772    0.79994    0.80591   1.00
H1       0.52691    0.80328    0.71720   1.00
H2       0.45744    0.80692    0.83020   1.00
H2       0.50269    0.78424    0.81932   1.00
H2       0.54256    0.67233    0.81033   1.00
H2       0.49731    0.69719    0.80647   1.00
N1       0.49143    0.83605    0.78768   1.00
C6       0.46927    0.86444    0.77275   1.00
C6       0.52846    0.84744    0.78380   1.00
C6       0.49241    0.89410    0.75867   1.00
C6       0.53005    0.88330    0.76570   1.00
H3       0.43803    0.86362    0.77175   1.00
H3       0.55300    0.83059    0.79324   1.00
H3       0.48287    0.92066    0.74485   1.00
H3       0.55575    0.89972    0.75842   1.00
N1       0.50857    0.65673    0.76121   1.00
C6       0.47154    0.64695    0.75420   1.00
C6       0.53073    0.63387    0.73871   1.00
C6       0.46995    0.61785    0.72652   1.00
C6       0.50759    0.60954    0.71666   1.00
H3       0.44700    0.66035    0.76811   1.00
H3       0.56197    0.63494    0.73799   1.00
H3       0.44425    0.60423    0.71480   1.00
H3       0.51713    0.58811    0.69576   1.00
C4       0.97915    0.74980    0.75003   1.00
C4       1.02085    0.75020    0.74997   1.00
C3a      0.95746    0.71935    0.73163   1.00
C3       1.04232    0.72694    0.77630   1.00
C3       0.95768    0.77967    0.76852   1.00
C3a      1.04254    0.77403    0.72356   1.00
C2       0.89488    0.75001    0.75008   1.00
C2       1.10512    0.75002    0.75008   1.00
C3       0.91595    0.71998    0.73189   1.00
C3       1.08363    0.72680    0.77624   1.00
C3       0.91637    0.77979    0.76842   1.00
C3       1.08405    0.77350    0.72399   1.00
C5       0.97772    0.68604    0.71091   1.00
H1       1.02691    0.70846    0.79679   1.00
H1       0.89979    0.69688    0.71769   1.00
H1       1.09901    0.70838    0.79676   1.00
H1       0.90099    0.80336    0.78274   1.00
H1       1.10021    0.79152    0.70372   1.00
C5       1.02228    0.79994    0.69409   1.00
H1       0.97309    0.80328    0.78280   1.00
H2       1.04256    0.80692    0.66980   1.00
H2       0.99731    0.78424    0.68068   1.00
H2       0.95744    0.67233    0.68967   1.00
H2       1.00269    0.69719    0.69353   1.00
N1       1.00857    0.83605    0.71232   1.00
C6       1.03073    0.86444    0.72725   1.00
C6       0.97154    0.84744    0.71620   1.00
C6       1.00759    0.89410    0.74133   1.00
C6       0.96995    0.88330    0.73430   1.00
H3       1.06197    0.86362    0.72825   1.00
H3       0.94700    0.83059    0.70676   1.00
H3       1.01713    0.92066    0.75515   1.00
H3       0.94425    0.89972    0.74158   1.00
N1       0.99143    0.65673    0.73879   1.00
C6       1.02846    0.64695    0.74580   1.00
C6       0.96927    0.63387    0.76129   1.00
C6       1.03005    0.61785    0.77348   1.00
C6       0.99241    0.60954    0.78334   1.00
H3       1.05300    0.66035    0.73189   1.00
H3       0.93803    0.63494    0.76201   1.00
H3       1.05575    0.60423    0.78520   1.00
H3       0.98287    0.58811    0.80424   1.00
C4       0.74997    0.52085    0.74980   1.00
C4       0.75003    0.47915    0.75020   1.00
C3a      0.76837    0.54254    0.71935   1.00
C3       0.72370    0.45768    0.72694   1.00
C3       0.73148    0.54232    0.77967   1.00
C3a      0.77644    0.45746    0.77403   1.00
C2       0.74992    0.60512    0.75001   1.00
C2       0.74992    0.39488    0.75002   1.00
C3       0.76811    0.58405    0.71998   1.00
C3       0.72376    0.41637    0.72680   1.00
C3       0.73158    0.58363    0.77979   1.00
C3       0.77601    0.41595    0.77350   1.00
C5       0.78909    0.52228    0.68604   1.00
H1       0.70321    0.47309    0.70846   1.00
H1       0.78231    0.60021    0.69688   1.00
H1       0.70324    0.40099    0.70838   1.00
H1       0.71726    0.59901    0.80336   1.00
H1       0.79628    0.39979    0.79152   1.00
C5       0.80591    0.47772    0.79994   1.00
H1       0.71720    0.52691    0.80328   1.00
H2       0.83020    0.45744    0.80692   1.00
H2       0.81932    0.50269    0.78424   1.00
H2       0.81033    0.54256    0.67233   1.00
H2       0.80647    0.49731    0.69719   1.00
N1       0.78768    0.49143    0.83605   1.00
C6       0.77275    0.46927    0.86444   1.00
C6       0.78380    0.52846    0.84744   1.00
C6       0.75867    0.49241    0.89410   1.00
C6       0.76570    0.53005    0.88330   1.00
H3       0.77175    0.43803    0.86362   1.00
H3       0.79324    0.55300    0.83059   1.00
H3       0.74485    0.48287    0.92066   1.00
H3       0.75842    0.55575    0.89972   1.00
N1       0.76121    0.50857    0.65673   1.00
C6       0.75420    0.47154    0.64695   1.00
C6       0.73871    0.53073    0.63387   1.00
C6       0.72652    0.46995    0.61785   1.00
C6       0.71666    0.50759    0.60954   1.00
H3       0.76811    0.44700    0.66035   1.00
H3       0.73799    0.56197    0.63494   1.00
H3       0.71480    0.44425    0.60423   1.00
H3       0.69576    0.51713    0.58811   1.00
C4       0.74980    0.74997    0.52085   1.00
C4       0.75020    0.75003    0.47915   1.00
C3a      0.71935    0.76837    0.54254   1.00
C3       0.72694    0.72370    0.45768   1.00
C3       0.77967    0.73148    0.54232   1.00
C3a      0.77403    0.77644    0.45746   1.00
C2       0.75001    0.74992    0.60512   1.00
C2       0.75002    0.74992    0.39488   1.00
C3       0.71998    0.76811    0.58405   1.00
C3       0.72680    0.72376    0.41637   1.00
C3       0.77979    0.73158    0.58363   1.00
C3       0.77350    0.77601    0.41595   1.00
C5       0.68604    0.78909    0.52228   1.00
H1       0.70846    0.70321    0.47309   1.00
H1       0.69688    0.78231    0.60021   1.00
H1       0.70838    0.70324    0.40099   1.00
H1       0.80336    0.71726    0.59901   1.00
H1       0.79152    0.79628    0.39979   1.00
C5       0.79994    0.80591    0.47772   1.00
H1       0.80328    0.71720    0.52691   1.00
H2       0.80692    0.83020    0.45744   1.00
H2       0.78424    0.81932    0.50269   1.00
H2       0.67233    0.81033    0.54256   1.00
H2       0.69719    0.80647    0.49731   1.00
N1       0.83605    0.78768    0.49143   1.00
C6       0.86444    0.77275    0.46927   1.00
C6       0.84744    0.78380    0.52846   1.00
C6       0.89410    0.75867    0.49241   1.00
C6       0.88330    0.76570    0.53005   1.00
H3       0.86362    0.77175    0.43803   1.00
H3       0.83059    0.79324    0.55300   1.00
H3       0.92066    0.74485    0.48287   1.00
H3       0.89972    0.75842    0.55575   1.00
N1       0.65673    0.76121    0.50857   1.00
C6       0.64695    0.75420    0.47154   1.00
C6       0.63387    0.73871    0.53073   1.00
C6       0.61785    0.72652    0.46995   1.00
C6       0.60954    0.71666    0.50759   1.00
H3       0.66035    0.76811    0.44700   1.00
H3       0.63494    0.73799    0.56197   1.00
H3       0.60423    0.71480    0.44425   1.00
H3       0.58811    0.69576    0.51713   1.00
C4       0.24980    0.25003    0.97915   1.00
C4       0.25020    0.24997    1.02085   1.00
C3a      0.21935    0.23163    0.95746   1.00
C3       0.22694    0.27630    1.04232   1.00
C3       0.27967    0.26852    0.95768   1.00
C3a      0.27403    0.22356    1.04254   1.00
C2       0.25001    0.25008    0.89488   1.00
C2       0.25002    0.25008    1.10512   1.00
C3       0.21998    0.23189    0.91595   1.00
C3       0.22680    0.27624    1.08363   1.00
C3       0.27979    0.26842    0.91637   1.00
C3       0.27350    0.22399    1.08405   1.00
C5       0.18604    0.21091    0.97772   1.00
H1       0.20846    0.29679    1.02691   1.00
H1       0.19688    0.21769    0.89979   1.00
H1       0.20838    0.29676    1.09901   1.00
H1       0.30336    0.28274    0.90099   1.00
H1       0.29152    0.20372    1.10021   1.00
C5       0.29994    0.19409    1.02228   1.00
H1       0.30328    0.28280    0.97309   1.00
H2       0.30692    0.16980    1.04256   1.00
H2       0.28424    0.18068    0.99731   1.00
H2       0.17233    0.18967    0.95744   1.00
H2       0.19719    0.19353    1.00269   1.00
N1       0.33605    0.21232    1.00857   1.00
C6       0.36444    0.22725    1.03073   1.00
C6       0.34744    0.21620    0.97154   1.00
C6       0.39410    0.24133    1.00759   1.00
C6       0.38330    0.23430    0.96995   1.00
H3       0.36362    0.22825    1.06197   1.00
H3       0.33059    0.20676    0.94700   1.00
H3       0.42066    0.25515    1.01713   1.00
H3       0.39972    0.24158    0.94425   1.00
N1       0.15673    0.23879    0.99143   1.00
C6       0.14695    0.24580    1.02846   1.00
C6       0.13387    0.26129    0.96927   1.00
C6       0.11785    0.27348    1.03005   1.00
C6       0.10954    0.28334    0.99241   1.00
H3       0.16035    0.23189    1.05300   1.00
H3       0.13494    0.26201    0.93803   1.00
H3       0.10423    0.28520    1.05575   1.00
H3       0.08811    0.30424    0.98287   1.00
C4       0.25003    0.47915    0.74980   1.00
C4       0.24997    0.52085    0.75020   1.00
C3a      0.23163    0.45746    0.71935   1.00
C3       0.27630    0.54232    0.72694   1.00
C3       0.26852    0.45768    0.77967   1.00
C3a      0.22356    0.54254    0.77403   1.00
C2       0.25008    0.39488    0.75001   1.00
C2       0.25008    0.60512    0.75002   1.00
C3       0.23189    0.41595    0.71998   1.00
C3       0.27624    0.58363    0.72680   1.00
C3       0.26842    0.41637    0.77979   1.00
C3       0.22399    0.58405    0.77350   1.00
C5       0.21091    0.47772    0.68604   1.00
H1       0.29679    0.52691    0.70846   1.00
H1       0.21769    0.39979    0.69688   1.00
H1       0.29676    0.59901    0.70838   1.00
H1       0.28274    0.40099    0.80336   1.00
H1       0.20372    0.60021    0.79152   1.00
C5       0.19409    0.52228    0.79994   1.00
H1       0.28280    0.47309    0.80328   1.00
H2       0.16980    0.54256    0.80692   1.00
H2       0.18068    0.49731    0.78424   1.00
H2       0.18967    0.45744    0.67233   1.00
H2       0.19353    0.50269    0.69719   1.00
N1       0.21232    0.50857    0.83605   1.00
C6       0.22725    0.53073    0.86444   1.00
C6       0.21620    0.47154    0.84744   1.00
C6       0.24133    0.50759    0.89410   1.00
C6       0.23430    0.46995    0.88330   1.00
H3       0.22825    0.56197    0.86362   1.00
H3       0.20676    0.44700    0.83059   1.00
H3       0.25515    0.51713    0.92066   1.00
H3       0.24158    0.44425    0.89972   1.00
N1       0.23879    0.49143    0.65673   1.00
C6       0.24580    0.52846    0.64695   1.00
C6       0.26129    0.46927    0.63387   1.00
C6       0.27348    0.53005    0.61785   1.00
C6       0.28334    0.49241    0.60954   1.00
H3       0.23189    0.55300    0.66035   1.00
H3       0.26201    0.43803    0.63494   1.00
H3       0.28520    0.55575    0.60423   1.00
H3       0.30424    0.48287    0.58811   1.00
C4       0.02085    0.24980    0.74997   1.00
C4       -0.02085   0.25020    0.75003   1.00
C3a      0.04254    0.21935    0.76837   1.00
C3       -0.04232   0.22694    0.72370   1.00
C3       0.04232    0.27967    0.73148   1.00
C3a      -0.04254   0.27403    0.77644   1.00
C2       0.10512    0.25001    0.74992   1.00
C2       -0.10512   0.25002    0.74992   1.00
C3       0.08405    0.21998    0.76811   1.00
C3       -0.08363   0.22680    0.72376   1.00
C3       0.08363    0.27979    0.73158   1.00
C3       -0.08405   0.27350    0.77601   1.00
C5       0.02228    0.18604    0.78909   1.00
H1       -0.02691   0.20846    0.70321   1.00
H1       0.10021    0.19688    0.78231   1.00
H1       -0.09901   0.20838    0.70324   1.00
H1       0.09901    0.30336    0.71726   1.00
H1       -0.10021   0.29152    0.79628   1.00
C5       -0.02228   0.29994    0.80591   1.00
H1       0.02691    0.30328    0.71720   1.00
H2       -0.04256   0.30692    0.83020   1.00
H2       0.00269    0.28424    0.81932   1.00
H2       0.04256    0.17233    0.81033   1.00
H2       -0.00269   0.19719    0.80647   1.00
N1       -0.00857   0.33605    0.78768   1.00
C6       -0.03073   0.36444    0.77275   1.00
C6       0.02846    0.34744    0.78380   1.00
C6       -0.00759   0.39410    0.75867   1.00
C6       0.03005    0.38330    0.76570   1.00
H3       -0.06197   0.36362    0.77175   1.00
H3       0.05300    0.33059    0.79324   1.00
H3       -0.01713   0.42066    0.74485   1.00
H3       0.05575    0.39972    0.75842   1.00
N1       0.00857    0.15673    0.76121   1.00
C6       -0.02846   0.14695    0.75420   1.00
C6       0.03073    0.13387    0.73871   1.00
C6       -0.03005   0.11785    0.72652   1.00
C6       0.00759    0.10954    0.71666   1.00
H3       -0.05300   0.16035    0.76811   1.00
H3       0.06197    0.13494    0.73799   1.00
H3       -0.05575   0.10423    0.71480   1.00
H3       0.01713    0.08811    0.69576   1.00
C4       0.47915    0.24980    0.75003   1.00
C4       0.52085    0.25020    0.74997   1.00
C3a      0.45746    0.21935    0.73163   1.00
C3       0.54232    0.22694    0.77630   1.00
C3       0.45768    0.27967    0.76852   1.00
C3a      0.54254    0.27403    0.72356   1.00
C2       0.39488    0.25001    0.75008   1.00
C2       0.60512    0.25002    0.75008   1.00
C3       0.41595    0.21998    0.73189   1.00
C3       0.58363    0.22680    0.77624   1.00
C3       0.41637    0.27979    0.76842   1.00
C3       0.58405    0.27350    0.72399   1.00
C5       0.47772    0.18604    0.71091   1.00
H1       0.52691    0.20846    0.79679   1.00
H1       0.39979    0.19688    0.71769   1.00
H1       0.59901    0.20838    0.79676   1.00
H1       0.40099    0.30336    0.78274   1.00
H1       0.60021    0.29152    0.70372   1.00
C5       0.52228    0.29994    0.69409   1.00
H1       0.47309    0.30328    0.78280   1.00
H2       0.54256    0.30692    0.66980   1.00
H2       0.49731    0.28424    0.68068   1.00
H2       0.45744    0.17233    0.68967   1.00
H2       0.50269    0.19719    0.69353   1.00
N1       0.50857    0.33605    0.71232   1.00
C6       0.53073    0.36444    0.72725   1.00
C6       0.47154    0.34744    0.71620   1.00
C6       0.50759    0.39410    0.74133   1.00
C6       0.46995    0.38330    0.73430   1.00
H3       0.56197    0.36362    0.72825   1.00
H3       0.44700    0.33059    0.70676   1.00
H3       0.51713    0.42066    0.75515   1.00
H3       0.44425    0.39972    0.74158   1.00
N1       0.49143    0.15673    0.73879   1.00
C6       0.52846    0.14695    0.74580   1.00
C6       0.46927    0.13387    0.76129   1.00
C6       0.53005    0.11785    0.77348   1.00
C6       0.49241    0.10954    0.78334   1.00
H3       0.55300    0.16035    0.73189   1.00
H3       0.43803    0.13494    0.76201   1.00
H3       0.55575    0.10423    0.78520   1.00
H3       0.48287    0.08811    0.80424   1.00
C4       0.24997    0.02085    0.74980   1.00
C4       0.25003    -0.02085   0.75020   1.00
C3a      0.26837    0.04254    0.71935   1.00
C3       0.22370    -0.04232   0.72694   1.00
C3       0.23148    0.04232    0.77967   1.00
C3a      0.27644    -0.04254   0.77403   1.00
C2       0.24992    0.10512    0.75001   1.00
C2       0.24992    -0.10512   0.75002   1.00
C3       0.26811    0.08405    0.71998   1.00
C3       0.22376    -0.08363   0.72680   1.00
C3       0.23158    0.08363    0.77979   1.00
C3       0.27601    -0.08405   0.77350   1.00
C5       0.28909    0.02228    0.68604   1.00
H1       0.20321    -0.02691   0.70846   1.00
H1       0.28231    0.10021    0.69688   1.00
H1       0.20324    -0.09901   0.70838   1.00
H1       0.21726    0.09901    0.80336   1.00
H1       0.29628    -0.10021   0.79152   1.00
C5       0.30591    -0.02228   0.79994   1.00
H1       0.21720    0.02691    0.80328   1.00
H2       0.33020    -0.04256   0.80692   1.00
H2       0.31932    0.00269    0.78424   1.00
H2       0.31033    0.04256    0.67233   1.00
H2       0.30647    -0.00269   0.69719   1.00
N1       0.28768    -0.00857   0.83605   1.00
C6       0.27275    -0.03073   0.86444   1.00
C6       0.28380    0.02846    0.84744   1.00
C6       0.25867    -0.00759   0.89410   1.00
C6       0.26570    0.03005    0.88330   1.00
H3       0.27175    -0.06197   0.86362   1.00
H3       0.29324    0.05300    0.83059   1.00
H3       0.24485    -0.01713   0.92066   1.00
H3       0.25842    0.05575    0.89972   1.00
N1       0.26121    0.00857    0.65673   1.00
C6       0.25420    -0.02846   0.64695   1.00
C6       0.23871    0.03073    0.63387   1.00
C6       0.22652    -0.03005   0.61785   1.00
C6       0.21666    0.00759    0.60954   1.00
H3       0.26811    -0.05300   0.66035   1.00
H3       0.23799    0.06197    0.63494   1.00
H3       0.21480    -0.05575   0.60423   1.00
H3       0.19576    0.01713    0.58811   1.00
C4       0.24980    0.24997    0.52085   1.00
C4       0.25020    0.25003    0.47915   1.00
C3a      0.21935    0.26837    0.54254   1.00
C3       0.22694    0.22370    0.45768   1.00
C3       0.27967    0.23148    0.54232   1.00
C3a      0.27403    0.27644    0.45746   1.00
C2       0.25001    0.24992    0.60512   1.00
C2       0.25002    0.24992    0.39488   1.00
C3       0.21998    0.26811    0.58405   1.00
C3       0.22680    0.22376    0.41637   1.00
C3       0.27979    0.23158    0.58363   1.00
C3       0.27350    0.27601    0.41595   1.00
C5       0.18604    0.28909    0.52228   1.00
H1       0.20846    0.20321    0.47309   1.00
H1       0.19688    0.28231    0.60021   1.00
H1       0.20838    0.20324    0.40099   1.00
H1       0.30336    0.21726    0.59901   1.00
H1       0.29152    0.29628    0.39979   1.00
C5       0.29994    0.30591    0.47772   1.00
H1       0.30328    0.21720    0.52691   1.00
H2       0.30692    0.33020    0.45744   1.00
H2       0.28424    0.31932    0.50269   1.00
H2       0.17233    0.31033    0.54256   1.00
H2       0.19719    0.30647    0.49731   1.00
N1       0.33605    0.28768    0.49143   1.00
C6       0.36444    0.27275    0.46927   1.00
C6       0.34744    0.28380    0.52846   1.00
C6       0.39410    0.25867    0.49241   1.00
C6       0.38330    0.26570    0.53005   1.00
H3       0.36362    0.27175    0.43803   1.00
H3       0.33059    0.29324    0.55300   1.00
H3       0.42066    0.24485    0.48287   1.00
H3       0.39972    0.25842    0.55575   1.00
N1       0.15673    0.26121    0.50857   1.00
C6       0.14695    0.25420    0.47154   1.00
C6       0.13387    0.23871    0.53073   1.00
C6       0.11785    0.22652    0.46995   1.00
C6       0.10954    0.21666    0.50759   1.00
H3       0.16035    0.26811    0.44700   1.00
H3       0.13494    0.23799    0.56197   1.00
H3       0.10423    0.21480    0.44425   1.00
H3       0.08811    0.19576    0.51713   1.00
C4       0.24980    0.75003    0.47915   1.00
C4       0.25020    0.74997    0.52085   1.00
C3a      0.21935    0.73163    0.45746   1.00
C3       0.22694    0.77630    0.54232   1.00
C3       0.27967    0.76852    0.45768   1.00
C3a      0.27403    0.72356    0.54254   1.00
C2       0.25001    0.75008    0.39488   1.00
C2       0.25002    0.75008    0.60512   1.00
C3       0.21998    0.73189    0.41595   1.00
C3       0.22680    0.77624    0.58363   1.00
C3       0.27979    0.76842    0.41637   1.00
C3       0.27350    0.72399    0.58405   1.00
C5       0.18604    0.71091    0.47772   1.00
H1       0.20846    0.79679    0.52691   1.00
H1       0.19688    0.71769    0.39979   1.00
H1       0.20838    0.79676    0.59901   1.00
H1       0.30336    0.78274    0.40099   1.00
H1       0.29152    0.70372    0.60021   1.00
C5       0.29994    0.69409    0.52228   1.00
H1       0.30328    0.78280    0.47309   1.00
H2       0.30692    0.66980    0.54256   1.00
H2       0.28424    0.68068    0.49731   1.00
H2       0.17233    0.68967    0.45744   1.00
H2       0.19719    0.69353    0.50269   1.00
N1       0.33605    0.71232    0.50857   1.00
C6       0.36444    0.72725    0.53073   1.00
C6       0.34744    0.71620    0.47154   1.00
C6       0.39410    0.74133    0.50759   1.00
C6       0.38330    0.73430    0.46995   1.00
H3       0.36362    0.72825    0.56197   1.00
H3       0.33059    0.70676    0.44700   1.00
H3       0.42066    0.75515    0.51713   1.00
H3       0.39972    0.74158    0.44425   1.00
N1       0.15673    0.73879    0.49143   1.00
C6       0.14695    0.74580    0.52846   1.00
C6       0.13387    0.76129    0.46927   1.00
C6       0.11785    0.77348    0.53005   1.00
C6       0.10954    0.78334    0.49241   1.00
H3       0.16035    0.73189    0.55300   1.00
H3       0.13494    0.76201    0.43803   1.00
H3       0.10423    0.78520    0.55575   1.00
H3       0.08811    0.80424    0.48287   1.00
C4       0.25003    0.97915    0.24980   1.00
C4       0.24997    1.02085    0.25020   1.00
C3a      0.23163    0.95746    0.21935   1.00
C3       0.27630    1.04232    0.22694   1.00
C3       0.26852    0.95768    0.27967   1.00
C3a      0.22356    1.04254    0.27403   1.00
C2       0.25008    0.89488    0.25001   1.00
C2       0.25008    1.10512    0.25002   1.00
C3       0.23189    0.91595    0.21998   1.00
C3       0.27624    1.08363    0.22680   1.00
C3       0.26842    0.91637    0.27979   1.00
C3       0.22399    1.08405    0.27350   1.00
C5       0.21091    0.97772    0.18604   1.00
H1       0.29679    1.02691    0.20846   1.00
H1       0.21769    0.89979    0.19688   1.00
H1       0.29676    1.09901    0.20838   1.00
H1       0.28274    0.90099    0.30336   1.00
H1       0.20372    1.10021    0.29152   1.00
C5       0.19409    1.02228    0.29994   1.00
H1       0.28280    0.97309    0.30328   1.00
H2       0.16980    1.04256    0.30692   1.00
H2       0.18068    0.99731    0.28424   1.00
H2       0.18967    0.95744    0.17233   1.00
H2       0.19353    1.00269    0.19719   1.00
N1       0.21232    1.00857    0.33605   1.00
C6       0.22725    1.03073    0.36444   1.00
C6       0.21620    0.97154    0.34744   1.00
C6       0.24133    1.00759    0.39410   1.00
C6       0.23430    0.96995    0.38330   1.00
H3       0.22825    1.06197    0.36362   1.00
H3       0.20676    0.94700    0.33059   1.00
H3       0.25515    1.01713    0.42066   1.00
H3       0.24158    0.94425    0.39972   1.00
N1       0.23879    0.99143    0.15673   1.00
C6       0.24580    1.02846    0.14695   1.00
C6       0.26129    0.96927    0.13387   1.00
C6       0.27348    1.03005    0.11785   1.00
C6       0.28334    0.99241    0.10954   1.00
H3       0.23189    1.05300    0.16035   1.00
H3       0.26201    0.93803    0.13494   1.00
H3       0.28520    1.05575    0.10423   1.00
H3       0.30424    0.98287    0.08811   1.00
C4       0.02085    0.74980    0.24997   1.00
C4       -0.02085   0.75020    0.25003   1.00
C3a      0.04254    0.71935    0.26837   1.00
C3       -0.04232   0.72694    0.22370   1.00
C3       0.04232    0.77967    0.23148   1.00
C3a      -0.04254   0.77403    0.27644   1.00
C2       0.10512    0.75001    0.24992   1.00
C2       -0.10512   0.75002    0.24992   1.00
C3       0.08405    0.71998    0.26811   1.00
C3       -0.08363   0.72680    0.22376   1.00
C3       0.08363    0.77979    0.23158   1.00
C3       -0.08405   0.77350    0.27601   1.00
C5       0.02228    0.68604    0.28909   1.00
H1       -0.02691   0.70846    0.20321   1.00
H1       0.10021    0.69688    0.28231   1.00
H1       -0.09901   0.70838    0.20324   1.00
H1       0.09901    0.80336    0.21726   1.00
H1       -0.10021   0.79152    0.29628   1.00
C5       -0.02228   0.79994    0.30591   1.00
H1       0.02691    0.80328    0.21720   1.00
H2       -0.04256   0.80692    0.33020   1.00
H2       0.00269    0.78424    0.31932   1.00
H2       0.04256    0.67233    0.31033   1.00
H2       -0.00269   0.69719    0.30647   1.00
N1       -0.00857   0.83605    0.28768   1.00
C6       -0.03073   0.86444    0.27275   1.00
C6       0.02846    0.84744    0.28380   1.00
C6       -0.00759   0.89410    0.25867   1.00
C6       0.03005    0.88330    0.26570   1.00
H3       -0.06197   0.86362    0.27175   1.00
H3       0.05300    0.83059    0.29324   1.00
H3       -0.01713   0.92066    0.24485   1.00
H3       0.05575    0.89972    0.25842   1.00
N1       0.00857    0.65673    0.26121   1.00
C6       -0.02846   0.64695    0.25420   1.00
C6       0.03073    0.63387    0.23871   1.00
C6       -0.03005   0.61785    0.22652   1.00
C6       0.00759    0.60954    0.21666   1.00
H3       -0.05300   0.66035    0.26811   1.00
H3       0.06197    0.63494    0.23799   1.00
H3       -0.05575   0.60423    0.21480   1.00
H3       0.01713    0.58811    0.19576   1.00
C4       0.47915    0.74980    0.25003   1.00
C4       0.52085    0.75020    0.24997   1.00
C3a      0.45746    0.71935    0.23163   1.00
C3       0.54232    0.72694    0.27630   1.00
C3       0.45768    0.77967    0.26852   1.00
C3a      0.54254    0.77403    0.22356   1.00
C2       0.39488    0.75001    0.25008   1.00
C2       0.60512    0.75002    0.25008   1.00
C3       0.41595    0.71998    0.23189   1.00
C3       0.58363    0.72680    0.27624   1.00
C3       0.41637    0.77979    0.26842   1.00
C3       0.58405    0.77350    0.22399   1.00
C5       0.47772    0.68604    0.21091   1.00
H1       0.52691    0.70846    0.29679   1.00
H1       0.39979    0.69688    0.21769   1.00
H1       0.59901    0.70838    0.29676   1.00
H1       0.40099    0.80336    0.28274   1.00
H1       0.60021    0.79152    0.20372   1.00
C5       0.52228    0.79994    0.19409   1.00
H1       0.47309    0.80328    0.28280   1.00
H2       0.54256    0.80692    0.16980   1.00
H2       0.49731    0.78424    0.18068   1.00
H2       0.45744    0.67233    0.18967   1.00
H2       0.50269    0.69719    0.19353   1.00
N1       0.50857    0.83605    0.21232   1.00
C6       0.53073    0.86444    0.22725   1.00
C6       0.47154    0.84744    0.21620   1.00
C6       0.50759    0.89410    0.24133   1.00
C6       0.46995    0.88330    0.23430   1.00
H3       0.56197    0.86362    0.22825   1.00
H3       0.44700    0.83059    0.20676   1.00
H3       0.51713    0.92066    0.25515   1.00
H3       0.44425    0.89972    0.24158   1.00
N1       0.49143    0.65673    0.23879   1.00
C6       0.52846    0.64695    0.24580   1.00
C6       0.46927    0.63387    0.26129   1.00
C6       0.53005    0.61785    0.27348   1.00
C6       0.49241    0.60954    0.28334   1.00
H3       0.55300    0.66035    0.23189   1.00
H3       0.43803    0.63494    0.26201   1.00
H3       0.55575    0.60423    0.28520   1.00
H3       0.48287    0.58811    0.30424   1.00
C4       0.24997    0.52085    0.24980   1.00
C4       0.25003    0.47915    0.25020   1.00
C3a      0.26837    0.54254    0.21935   1.00
C3       0.22370    0.45768    0.22694   1.00
C3       0.23148    0.54232    0.27967   1.00
C3a      0.27644    0.45746    0.27403   1.00
C2       0.24992    0.60512    0.25001   1.00
C2       0.24992    0.39488    0.25002   1.00
C3       0.26811    0.58405    0.21998   1.00
C3       0.22376    0.41637    0.22680   1.00
C3       0.23158    0.58363    0.27979   1.00
C3       0.27601    0.41595    0.27350   1.00
C5       0.28909    0.52228    0.18604   1.00
H1       0.20321    0.47309    0.20846   1.00
H1       0.28231    0.60021    0.19688   1.00
H1       0.20324    0.40099    0.20838   1.00
H1       0.21726    0.59901    0.30336   1.00
H1       0.29628    0.39979    0.29152   1.00
C5       0.30591    0.47772    0.29994   1.00
H1       0.21720    0.52691    0.30328   1.00
H2       0.33020    0.45744    0.30692   1.00
H2       0.31932    0.50269    0.28424   1.00
H2       0.31033    0.54256    0.17233   1.00
H2       0.30647    0.49731    0.19719   1.00
N1       0.28768    0.49143    0.33605   1.00
C6       0.27275    0.46927    0.36444   1.00
C6       0.28380    0.52846    0.34744   1.00
C6       0.25867    0.49241    0.39410   1.00
C6       0.26570    0.53005    0.38330   1.00
H3       0.27175    0.43803    0.36362   1.00
H3       0.29324    0.55300    0.33059   1.00
H3       0.24485    0.48287    0.42066   1.00
H3       0.25842    0.55575    0.39972   1.00
N1       0.26121    0.50857    0.15673   1.00
C6       0.25420    0.47154    0.14695   1.00
C6       0.23871    0.53073    0.13387   1.00
C6       0.22652    0.46995    0.11785   1.00
C6       0.21666    0.50759    0.10954   1.00
H3       0.26811    0.44700    0.16035   1.00
H3       0.23799    0.56197    0.13494   1.00
H3       0.21480    0.44425    0.10423   1.00
H3       0.19576    0.51713    0.08811   1.00
C4       0.24980    0.74997    0.02085   1.00
C4       0.25020    0.75003    -0.02085   1.00
C3a      0.21935    0.76837    0.04254   1.00
C3       0.22694    0.72370    -0.04232   1.00
C3       0.27967    0.73148    0.04232   1.00
C3a      0.27403    0.77644    -0.04254   1.00
C2       0.25001    0.74992    0.10512   1.00
C2       0.25002    0.74992    -0.10512   1.00
C3       0.21998    0.76811    0.08405   1.00
C3       0.22680    0.72376    -0.08363   1.00
C3       0.27979    0.73158    0.08363   1.00
C3       0.27350    0.77601    -0.08405   1.00
C5       0.18604    0.78909    0.02228   1.00
H1       0.20846    0.70321    -0.02691   1.00
H1       0.19688    0.78231    0.10021   1.00
H1       0.20838    0.70324    -0.09901   1.00
H1       0.30336    0.71726    0.09901   1.00
H1       0.29152    0.79628    -0.10021   1.00
C5       0.29994    0.80591    -0.02228   1.00
H1       0.30328    0.71720    0.02691   1.00
H2       0.30692    0.83020    -0.04256   1.00
H2       0.28424    0.81932    0.00269   1.00
H2       0.17233    0.81033    0.04256   1.00
H2       0.19719    0.80647    -0.00269   1.00
N1       0.33605    0.78768    -0.00857   1.00
C6       0.36444    0.77275    -0.03073   1.00
C6       0.34744    0.78380    0.02846   1.00
C6       0.39410    0.75867    -0.00759   1.00
C6       0.38330    0.76570    0.03005   1.00
H3       0.36362    0.77175    -0.06197   1.00
H3       0.33059    0.79324    0.05300   1.00
H3       0.42066    0.74485    -0.01713   1.00
H3       0.39972    0.75842    0.05575   1.00
N1       0.15673    0.76121    0.00857   1.00
C6       0.14695    0.75420    -0.02846   1.00
C6       0.13387    0.73871    0.03073   1.00
C6       0.11785    0.72652    -0.03005   1.00
C6       0.10954    0.71666    0.00759   1.00
H3       0.16035    0.76811    -0.05300   1.00
H3       0.13494    0.73799    0.06197   1.00
H3       0.10423    0.71480    -0.05575   1.00
H3       0.08811    0.69576    0.01713   1.00
C4       0.74980    0.25003    0.47915   1.00
C4       0.75020    0.24997    0.52085   1.00
C3a      0.71935    0.23163    0.45746   1.00
C3       0.72694    0.27630    0.54232   1.00
C3       0.77967    0.26852    0.45768   1.00
C3a      0.77403    0.22356    0.54254   1.00
C2       0.75001    0.25008    0.39488   1.00
C2       0.75002    0.25008    0.60512   1.00
C3       0.71998    0.23189    0.41595   1.00
C3       0.72680    0.27624    0.58363   1.00
C3       0.77979    0.26842    0.41637   1.00
C3       0.77350    0.22399    0.58405   1.00
C5       0.68604    0.21091    0.47772   1.00
H1       0.70846    0.29679    0.52691   1.00
H1       0.69688    0.21769    0.39979   1.00
H1       0.70838    0.29676    0.59901   1.00
H1       0.80336    0.28274    0.40099   1.00
H1       0.79152    0.20372    0.60021   1.00
C5       0.79994    0.19409    0.52228   1.00
H1       0.80328    0.28280    0.47309   1.00
H2       0.80692    0.16980    0.54256   1.00
H2       0.78424    0.18068    0.49731   1.00
H2       0.67233    0.18967    0.45744   1.00
H2       0.69719    0.19353    0.50269   1.00
N1       0.83605    0.21232    0.50857   1.00
C6       0.86444    0.22725    0.53073   1.00
C6       0.84744    0.21620    0.47154   1.00
C6       0.89410    0.24133    0.50759   1.00
C6       0.88330    0.23430    0.46995   1.00
H3       0.86362    0.22825    0.56197   1.00
H3       0.83059    0.20676    0.44700   1.00
H3       0.92066    0.25515    0.51713   1.00
H3       0.89972    0.24158    0.44425   1.00
N1       0.65673    0.23879    0.49143   1.00
C6       0.64695    0.24580    0.52846   1.00
C6       0.63387    0.26129    0.46927   1.00
C6       0.61785    0.27348    0.53005   1.00
C6       0.60954    0.28334    0.49241   1.00
H3       0.66035    0.23189    0.55300   1.00
H3       0.63494    0.26201    0.43803   1.00
H3       0.60423    0.28520    0.55575   1.00
H3       0.58811    0.30424    0.48287   1.00
C4       0.75003    0.47915    0.24980   1.00
C4       0.74997    0.52085    0.25020   1.00
C3a      0.73163    0.45746    0.21935   1.00
C3       0.77630    0.54232    0.22694   1.00
C3       0.76852    0.45768    0.27967   1.00
C3a      0.72356    0.54254    0.27403   1.00
C2       0.75008    0.39488    0.25001   1.00
C2       0.75008    0.60512    0.25002   1.00
C3       0.73189    0.41595    0.21998   1.00
C3       0.77624    0.58363    0.22680   1.00
C3       0.76842    0.41637    0.27979   1.00
C3       0.72399    0.58405    0.27350   1.00
C5       0.71091    0.47772    0.18604   1.00
H1       0.79679    0.52691    0.20846   1.00
H1       0.71769    0.39979    0.19688   1.00
H1       0.79676    0.59901    0.20838   1.00
H1       0.78274    0.40099    0.30336   1.00
H1       0.70372    0.60021    0.29152   1.00
C5       0.69409    0.52228    0.29994   1.00
H1       0.78280    0.47309    0.30328   1.00
H2       0.66980    0.54256    0.30692   1.00
H2       0.68068    0.49731    0.28424   1.00
H2       0.68967    0.45744    0.17233   1.00
H2       0.69353    0.50269    0.19719   1.00
N1       0.71232    0.50857    0.33605   1.00
C6       0.72725    0.53073    0.36444   1.00
C6       0.71620    0.47154    0.34744   1.00
C6       0.74133    0.50759    0.39410   1.00
C6       0.73430    0.46995    0.38330   1.00
H3       0.72825    0.56197    0.36362   1.00
H3       0.70676    0.44700    0.33059   1.00
H3       0.75515    0.51713    0.42066   1.00
H3       0.74158    0.44425    0.39972   1.00
N1       0.73879    0.49143    0.15673   1.00
C6       0.74580    0.52846    0.14695   1.00
C6       0.76129    0.46927    0.13387   1.00
C6       0.77348    0.53005    0.11785   1.00
C6       0.78334    0.49241    0.10954   1.00
H3       0.73189    0.55300    0.16035   1.00
H3       0.76201    0.43803    0.13494   1.00
H3       0.78520    0.55575    0.10423   1.00
H3       0.80424    0.48287    0.08811   1.00
C4       0.52085    0.24980    0.24997   1.00
C4       0.47915    0.25020    0.25003   1.00
C3a      0.54254    0.21935    0.26837   1.00
C3       0.45768    0.22694    0.22370   1.00
C3       0.54232    0.27967    0.23148   1.00
C3a      0.45746    0.27403    0.27644   1.00
C2       0.60512    0.25001    0.24992   1.00
C2       0.39488    0.25002    0.24992   1.00
C3       0.58405    0.21998    0.26811   1.00
C3       0.41637    0.22680    0.22376   1.00
C3       0.58363    0.27979    0.23158   1.00
C3       0.41595    0.27350    0.27601   1.00
C5       0.52228    0.18604    0.28909   1.00
H1       0.47309    0.20846    0.20321   1.00
H1       0.60021    0.19688    0.28231   1.00
H1       0.40099    0.20838    0.20324   1.00
H1       0.59901    0.30336    0.21726   1.00
H1       0.39979    0.29152    0.29628   1.00
C5       0.47772    0.29994    0.30591   1.00
H1       0.52691    0.30328    0.21720   1.00
H2       0.45744    0.30692    0.33020   1.00
H2       0.50269    0.28424    0.31932   1.00
H2       0.54256    0.17233    0.31033   1.00
H2       0.49731    0.19719    0.30647   1.00
N1       0.49143    0.33605    0.28768   1.00
C6       0.46927    0.36444    0.27275   1.00
C6       0.52846    0.34744    0.28380   1.00
C6       0.49241    0.39410    0.25867   1.00
C6       0.53005    0.38330    0.26570   1.00
H3       0.43803    0.36362    0.27175   1.00
H3       0.55300    0.33059    0.29324   1.00
H3       0.48287    0.42066    0.24485   1.00
H3       0.55575    0.39972    0.25842   1.00
N1       0.50857    0.15673    0.26121   1.00
C6       0.47154    0.14695    0.25420   1.00
C6       0.53073    0.13387    0.23871   1.00
C6       0.46995    0.11785    0.22652   1.00
C6       0.50759    0.10954    0.21666   1.00
H3       0.44700    0.16035    0.26811   1.00
H3       0.56197    0.13494    0.23799   1.00
H3       0.44425    0.10423    0.21480   1.00
H3       0.51713    0.08811    0.19576   1.00
C4       0.97915    0.24980    0.25003   1.00
C4       1.02085    0.25020    0.24997   1.00
C3a      0.95746    0.21935    0.23163   1.00
C3       1.04232    0.22694    0.27630   1.00
C3       0.95768    0.27967    0.26852   1.00
C3a      1.04254    0.27403    0.22356   1.00
C2       0.89488    0.25001    0.25008   1.00
C2       1.10512    0.25002    0.25008   1.00
C3       0.91595    0.21998    0.23189   1.00
C3       1.08363    0.22680    0.27624   1.00
C3       0.91637    0.27979    0.26842   1.00
C3       1.08405    0.27350    0.22399   1.00
C5       0.97772    0.18604    0.21091   1.00
H1       1.02691    0.20846    0.29679   1.00
H1       0.89979    0.19688    0.21769   1.00
H1       1.09901    0.20838    0.29676   1.00
H1       0.90099    0.30336    0.28274   1.00
H1       1.10021    0.29152    0.20372   1.00
C5       1.02228    0.29994    0.19409   1.00
H1       0.97309    0.30328    0.28280   1.00
H2       1.04256    0.30692    0.16980   1.00
H2       0.99731    0.28424    0.18068   1.00
H2       0.95744    0.17233    0.18967   1.00
H2       1.00269    0.19719    0.19353   1.00
N1       1.00857    0.33605    0.21232   1.00
C6       1.03073    0.36444    0.22725   1.00
C6       0.97154    0.34744    0.21620   1.00
C6       1.00759    0.39410    0.24133   1.00
C6       0.96995    0.38330    0.23430   1.00
H3       1.06197    0.36362    0.22825   1.00
H3       0.94700    0.33059    0.20676   1.00
H3       1.01713    0.42066    0.25515   1.00
H3       0.94425    0.39972    0.24158   1.00
N1       0.99143    0.15673    0.23879   1.00
C6       1.02846    0.14695    0.24580   1.00
C6       0.96927    0.13387    0.26129   1.00
C6       1.03005    0.11785    0.27348   1.00
C6       0.99241    0.10954    0.28334   1.00
H3       1.05300    0.16035    0.23189   1.00
H3       0.93803    0.13494    0.26201   1.00
H3       1.05575    0.10423    0.28520   1.00
H3       0.98287    0.08811    0.30424   1.00
C4       0.74997    0.02085    0.24980   1.00
C4       0.75003    -0.02085   0.25020   1.00
C3a      0.76837    0.04254    0.21935   1.00
C3       0.72370    -0.04232   0.22694   1.00
C3       0.73148    0.04232    0.27967   1.00
C3a      0.77644    -0.04254   0.27403   1.00
C2       0.74992    0.10512    0.25001   1.00
C2       0.74992    -0.10512   0.25002   1.00
C3       0.76811    0.08405    0.21998   1.00
C3       0.72376    -0.08363   0.22680   1.00
C3       0.73158    0.08363    0.27979   1.00
C3       0.77601    -0.08405   0.27350   1.00
C5       0.78909    0.02228    0.18604   1.00
H1       0.70321    -0.02691   0.20846   1.00
H1       0.78231    0.10021    0.19688   1.00
H1       0.70324    -0.09901   0.20838   1.00
H1       0.71726    0.09901    0.30336   1.00
H1       0.79628    -0.10021   0.29152   1.00
C5       0.80591    -0.02228   0.29994   1.00
H1       0.71720    0.02691    0.30328   1.00
H2       0.83020    -0.04256   0.30692   1.00
H2       0.81932    0.00269    0.28424   1.00
H2       0.81033    0.04256    0.17233   1.00
H2       0.80647    -0.00269   0.19719   1.00
N1       0.78768    -0.00857   0.33605   1.00
C6       0.77275    -0.03073   0.36444   1.00
C6       0.78380    0.02846    0.34744   1.00
C6       0.75867    -0.00759   0.39410   1.00
C6       0.76570    0.03005    0.38330   1.00
H3       0.77175    -0.06197   0.36362   1.00
H3       0.79324    0.05300    0.33059   1.00
H3       0.74485    -0.01713   0.42066   1.00
H3       0.75842    0.05575    0.39972   1.00
N1       0.76121    0.00857    0.15673   1.00
C6       0.75420    -0.02846   0.14695   1.00
C6       0.73871    0.03073    0.13387   1.00
C6       0.72652    -0.03005   0.11785   1.00
C6       0.71666    0.00759    0.10954   1.00
H3       0.76811    -0.05300   0.16035   1.00
H3       0.73799    0.06197    0.13494   1.00
H3       0.71480    -0.05575   0.10423   1.00
H3       0.69576    0.01713    0.08811   1.00
C4       0.74980    0.24997    0.02085   1.00
C4       0.75020    0.25003    -0.02085   1.00
C3a      0.71935    0.26837    0.04254   1.00
C3       0.72694    0.22370    -0.04232   1.00
C3       0.77967    0.23148    0.04232   1.00
C3a      0.77403    0.27644    -0.04254   1.00
C2       0.75001    0.24992    0.10512   1.00
C2       0.75002    0.24992    -0.10512   1.00
C3       0.71998    0.26811    0.08405   1.00
C3       0.72680    0.22376    -0.08363   1.00
C3       0.77979    0.23158    0.08363   1.00
C3       0.77350    0.27601    -0.08405   1.00
C5       0.68604    0.28909    0.02228   1.00
H1       0.70846    0.20321    -0.02691   1.00
H1       0.69688    0.28231    0.10021   1.00
H1       0.70838    0.20324    -0.09901   1.00
H1       0.80336    0.21726    0.09901   1.00
H1       0.79152    0.29628    -0.10021   1.00
C5       0.79994    0.30591    -0.02228   1.00
H1       0.80328    0.21720    0.02691   1.00
H2       0.80692    0.33020    -0.04256   1.00
H2       0.78424    0.31932    0.00269   1.00
H2       0.67233    0.31033    0.04256   1.00
H2       0.69719    0.30647    -0.00269   1.00
N1       0.83605    0.28768    -0.00857   1.00
C6       0.86444    0.27275    -0.03073   1.00
C6       0.84744    0.28380    0.02846   1.00
C6       0.89410    0.25867    -0.00759   1.00
C6       0.88330    0.26570    0.03005   1.00
H3       0.86362    0.27175    -0.06197   1.00
H3       0.83059    0.29324    0.05300   1.00
H3       0.92066    0.24485    -0.01713   1.00
H3       0.89972    0.25842    0.05575   1.00
N1       0.65673    0.26121    0.00857   1.00
C6       0.64695    0.25420    -0.02846   1.00
C6       0.63387    0.23871    0.03073   1.00
C6       0.61785    0.22652    -0.03005   1.00
C6       0.60954    0.21666    0.00759   1.00
H3       0.66035    0.26811    -0.05300   1.00
H3       0.63494    0.23799    0.06197   1.00
H3       0.60423    0.21480    -0.05575   1.00
H3       0.58811    0.19576    0.01713   1.00
