data_IRMOF10_SG202_Ligand1_label_j.

_audit_creation_method             'generated by an auxiliary program of Tobunporous'

_symmetry_space_group_name_H-M     'P 1'
_symmetry_Int_Tables_number        1
_symmetry_cell_setting             triclinic

_cell_length_a                    34.2800
_cell_length_b                    34.2800
_cell_length_c                    34.2800
_cell_angle_alpha                 90.0000
_cell_angle_beta                  90.0000
_cell_angle_gamma                 90.0000

loop_
_atom_site_label
_atom_site_fract_x
_atom_site_fract_y
_atom_site_fract_z
_atom_site_occupancy
O1       0.75000    0.75000    0.75000   1.00
Zn1      0.71720    0.78280    0.78280   1.00
Zn1      0.78280    0.71720    0.78280   1.00
Zn1      0.78280    0.78280    0.71720   1.00
Zn1      0.71720    0.71720    0.71720   1.00
O2       0.72650    0.77350    0.83820   1.00
O2       0.72650    0.83820    0.77350   1.00
O2       0.66180    0.77350    0.77350   1.00
O2       0.77350    0.72650    0.83820   1.00
O2       0.83820    0.72650    0.77350   1.00
O2       0.77350    0.66180    0.77350   1.00
O2       0.77350    0.83820    0.72650   1.00
O2       0.83820    0.77350    0.72650   1.00
O2       0.77350    0.77350    0.66180   1.00
O2       0.66180    0.72650    0.72650   1.00
O2       0.72650    0.66180    0.72650   1.00
O2       0.72650    0.72650    0.66180   1.00
C1       0.75000    0.75000    0.85520   1.00
C1       0.75000    0.85520    0.75000   1.00
C1       0.64480    0.75000    0.75000   1.00
C1       0.85520    0.75000    0.75000   1.00
C1       0.75000    0.64480    0.75000   1.00
C1       0.75000    0.75000    0.64480   1.00
O1       0.25000    0.25000    0.75000   1.00
Zn1      0.21720    0.28280    0.78280   1.00
Zn1      0.28280    0.21720    0.78280   1.00
Zn1      0.28280    0.28280    0.71720   1.00
Zn1      0.21720    0.21720    0.71720   1.00
O2       0.22650    0.27350    0.83820   1.00
O2       0.22650    0.33820    0.77350   1.00
O2       0.16180    0.27350    0.77350   1.00
O2       0.27350    0.22650    0.83820   1.00
O2       0.33820    0.22650    0.77350   1.00
O2       0.27350    0.16180    0.77350   1.00
O2       0.27350    0.33820    0.72650   1.00
O2       0.33820    0.27350    0.72650   1.00
O2       0.27350    0.27350    0.66180   1.00
O2       0.16180    0.22650    0.72650   1.00
O2       0.22650    0.16180    0.72650   1.00
O2       0.22650    0.22650    0.66180   1.00
C1       0.25000    0.25000    0.85520   1.00
C1       0.25000    0.35520    0.75000   1.00
C1       0.14480    0.25000    0.75000   1.00
C1       0.35520    0.25000    0.75000   1.00
C1       0.25000    0.14480    0.75000   1.00
C1       0.25000    0.25000    0.64480   1.00
O1       0.25000    0.75000    0.25000   1.00
Zn1      0.21720    0.78280    0.28280   1.00
Zn1      0.28280    0.71720    0.28280   1.00
Zn1      0.28280    0.78280    0.21720   1.00
Zn1      0.21720    0.71720    0.21720   1.00
O2       0.22650    0.77350    0.33820   1.00
O2       0.22650    0.83820    0.27350   1.00
O2       0.16180    0.77350    0.27350   1.00
O2       0.27350    0.72650    0.33820   1.00
O2       0.33820    0.72650    0.27350   1.00
O2       0.27350    0.66180    0.27350   1.00
O2       0.27350    0.83820    0.22650   1.00
O2       0.33820    0.77350    0.22650   1.00
O2       0.27350    0.77350    0.16180   1.00
O2       0.16180    0.72650    0.22650   1.00
O2       0.22650    0.66180    0.22650   1.00
O2       0.22650    0.72650    0.16180   1.00
C1       0.25000    0.75000    0.35520   1.00
C1       0.25000    0.85520    0.25000   1.00
C1       0.14480    0.75000    0.25000   1.00
C1       0.35520    0.75000    0.25000   1.00
C1       0.25000    0.64480    0.25000   1.00
C1       0.25000    0.75000    0.14480   1.00
O1       0.75000    0.25000    0.25000   1.00
Zn1      0.71720    0.28280    0.28280   1.00
Zn1      0.78280    0.21720    0.28280   1.00
Zn1      0.78280    0.28280    0.21720   1.00
Zn1      0.71720    0.21720    0.21720   1.00
O2       0.72650    0.27350    0.33820   1.00
O2       0.72650    0.33820    0.27350   1.00
O2       0.66180    0.27350    0.27350   1.00
O2       0.77350    0.22650    0.33820   1.00
O2       0.83820    0.22650    0.27350   1.00
O2       0.77350    0.16180    0.27350   1.00
O2       0.77350    0.33820    0.22650   1.00
O2       0.83820    0.27350    0.22650   1.00
O2       0.77350    0.27350    0.16180   1.00
O2       0.66180    0.22650    0.22650   1.00
O2       0.72650    0.16180    0.22650   1.00
O2       0.72650    0.22650    0.16180   1.00
C1       0.75000    0.25000    0.35520   1.00
C1       0.75000    0.35520    0.25000   1.00
C1       0.64480    0.25000    0.25000   1.00
C1       0.85520    0.25000    0.25000   1.00
C1       0.75000    0.14480    0.25000   1.00
C1       0.75000    0.25000    0.14480   1.00
O1       0.25000    0.25000    0.25000   1.00
Zn1      0.28280    0.21720    0.21720   1.00
Zn1      0.21720    0.28280    0.21720   1.00
Zn1      0.21720    0.21720    0.28280   1.00
Zn1      0.28280    0.28280    0.28280   1.00
O2       0.27350    0.22650    0.16180   1.00
O2       0.27350    0.16180    0.22650   1.00
O2       0.33820    0.22650    0.22650   1.00
O2       0.22650    0.27350    0.16180   1.00
O2       0.16180    0.27350    0.22650   1.00
O2       0.22650    0.33820    0.22650   1.00
O2       0.22650    0.16180    0.27350   1.00
O2       0.16180    0.22650    0.27350   1.00
O2       0.22650    0.22650    0.33820   1.00
O2       0.33820    0.27350    0.27350   1.00
O2       0.27350    0.33820    0.27350   1.00
O2       0.27350    0.27350    0.33820   1.00
C1       0.25000    0.25000    0.14480   1.00
C1       0.25000    0.14480    0.25000   1.00
C1       0.35520    0.25000    0.25000   1.00
C1       0.14480    0.25000    0.25000   1.00
C1       0.25000    0.35520    0.25000   1.00
C1       0.25000    0.25000    0.35520   1.00
O1       0.75000    0.75000    0.25000   1.00
Zn1      0.78280    0.71720    0.21720   1.00
Zn1      0.71720    0.78280    0.21720   1.00
Zn1      0.71720    0.71720    0.28280   1.00
Zn1      0.78280    0.78280    0.28280   1.00
O2       0.77350    0.72650    0.16180   1.00
O2       0.77350    0.66180    0.22650   1.00
O2       0.83820    0.72650    0.22650   1.00
O2       0.72650    0.77350    0.16180   1.00
O2       0.66180    0.77350    0.22650   1.00
O2       0.72650    0.83820    0.22650   1.00
O2       0.72650    0.66180    0.27350   1.00
O2       0.66180    0.72650    0.27350   1.00
O2       0.72650    0.72650    0.33820   1.00
O2       0.83820    0.77350    0.27350   1.00
O2       0.77350    0.83820    0.27350   1.00
O2       0.77350    0.77350    0.33820   1.00
C1       0.75000    0.75000    0.14480   1.00
C1       0.75000    0.64480    0.25000   1.00
C1       0.85520    0.75000    0.25000   1.00
C1       0.64480    0.75000    0.25000   1.00
C1       0.75000    0.85520    0.25000   1.00
C1       0.75000    0.75000    0.35520   1.00
O1       0.75000    0.25000    0.75000   1.00
Zn1      0.78280    0.21720    0.71720   1.00
Zn1      0.71720    0.28280    0.71720   1.00
Zn1      0.71720    0.21720    0.78280   1.00
Zn1      0.78280    0.28280    0.78280   1.00
O2       0.77350    0.22650    0.66180   1.00
O2       0.77350    0.16180    0.72650   1.00
O2       0.83820    0.22650    0.72650   1.00
O2       0.72650    0.27350    0.66180   1.00
O2       0.66180    0.27350    0.72650   1.00
O2       0.72650    0.33820    0.72650   1.00
O2       0.72650    0.16180    0.77350   1.00
O2       0.66180    0.22650    0.77350   1.00
O2       0.72650    0.22650    0.83820   1.00
O2       0.83820    0.27350    0.77350   1.00
O2       0.77350    0.33820    0.77350   1.00
O2       0.77350    0.27350    0.83820   1.00
C1       0.75000    0.25000    0.64480   1.00
C1       0.75000    0.14480    0.75000   1.00
C1       0.85520    0.25000    0.75000   1.00
C1       0.64480    0.25000    0.75000   1.00
C1       0.75000    0.35520    0.75000   1.00
C1       0.75000    0.25000    0.85520   1.00
O1       0.25000    0.75000    0.75000   1.00
Zn1      0.28280    0.71720    0.71720   1.00
Zn1      0.21720    0.78280    0.71720   1.00
Zn1      0.21720    0.71720    0.78280   1.00
Zn1      0.28280    0.78280    0.78280   1.00
O2       0.27350    0.72650    0.66180   1.00
O2       0.27350    0.66180    0.72650   1.00
O2       0.33820    0.72650    0.72650   1.00
O2       0.22650    0.77350    0.66180   1.00
O2       0.16180    0.77350    0.72650   1.00
O2       0.22650    0.83820    0.72650   1.00
O2       0.22650    0.66180    0.77350   1.00
O2       0.16180    0.72650    0.77350   1.00
O2       0.22650    0.72650    0.83820   1.00
O2       0.33820    0.77350    0.77350   1.00
O2       0.27350    0.83820    0.77350   1.00
O2       0.27350    0.77350    0.83820   1.00
C1       0.25000    0.75000    0.64480   1.00
C1       0.25000    0.64480    0.75000   1.00
C1       0.35520    0.75000    0.75000   1.00
C1       0.14480    0.75000    0.75000   1.00
C1       0.25000    0.85520    0.75000   1.00
C1       0.25000    0.75000    0.85520   1.00
C2       0.75215    0.75208    0.89757   1.00
C3a      0.78605    0.76045    0.91884   1.00
H1       0.81290    0.76756    0.90369   1.00
C3a      0.71740    0.74287    0.91704   1.00
H1       0.69121    0.73641    0.90051   1.00
C3b      0.78558    0.75973    0.95938   1.00
C5       0.82254    0.76888    0.98144   1.00
H2       0.83101    0.74363    0.99984   1.00
H2       0.84728    0.77551    0.96161   1.00
H2       0.81795    0.79455    1.00060   1.00
C3b      0.71617    0.74196    0.95756   1.00
C5       0.67832    0.73195    0.97767   1.00
H2       0.66906    0.75644    0.99670   1.00
H2       0.65444    0.72614    0.95655   1.00
H2       0.68212    0.70552    0.99594   1.00
C4       0.75045    0.75043    0.97873   1.00
C4       0.74955    0.74957    1.02127   1.00
C3b      0.75803    0.71445    1.04101   1.00
C5       0.76806    0.67746    1.01937   1.00
H2       0.79451    0.68203    1.00129   1.00
H2       0.77387    0.65274    1.03949   1.00
H2       0.74360    0.66899    0.99995   1.00
C3b      0.74023    0.78387    1.04204   1.00
C5       0.73108    0.82171    1.02152   1.00
H2       0.70542    0.81790    1.00217   1.00
H2       0.72441    0.84560    1.04235   1.00
H2       0.75633    0.83094    1.00350   1.00
C3a      0.75708    0.71401    1.08155   1.00
H1       0.76355    0.68717    1.09700   1.00
C3a      0.73947    0.78267    1.08257   1.00
H1       0.73234    0.80887    1.09881   1.00
C2       0.74785    0.74792    1.10243   1.00
C2       0.75208    0.89757    0.75215   1.00
C3a      0.76045    0.91884    0.78605   1.00
H1       0.76756    0.90369    0.81290   1.00
C3a      0.74287    0.91704    0.71740   1.00
H1       0.73641    0.90051    0.69121   1.00
C3b      0.75973    0.95938    0.78558   1.00
C5       0.76888    0.98144    0.82254   1.00
H2       0.74363    0.99984    0.83101   1.00
H2       0.77551    0.96161    0.84728   1.00
H2       0.79455    1.00060    0.81795   1.00
C3b      0.74196    0.95756    0.71617   1.00
C5       0.73195    0.97767    0.67832   1.00
H2       0.75644    0.99670    0.66906   1.00
H2       0.72614    0.95655    0.65444   1.00
H2       0.70552    0.99594    0.68212   1.00
C4       0.75043    0.97873    0.75045   1.00
C4       0.74957    1.02127    0.74955   1.00
C3b      0.71445    1.04101    0.75803   1.00
C5       0.67746    1.01937    0.76806   1.00
H2       0.68203    1.00129    0.79451   1.00
H2       0.65274    1.03949    0.77387   1.00
H2       0.66899    0.99995    0.74360   1.00
C3b      0.78387    1.04204    0.74023   1.00
C5       0.82171    1.02152    0.73108   1.00
H2       0.81790    1.00217    0.70542   1.00
H2       0.84560    1.04235    0.72441   1.00
H2       0.83094    1.00350    0.75633   1.00
C3a      0.71401    1.08155    0.75708   1.00
H1       0.68717    1.09700    0.76355   1.00
C3a      0.78267    1.08257    0.73947   1.00
H1       0.80887    1.09881    0.73234   1.00
C2       0.74792    1.10243    0.74785   1.00
C2       0.60243    0.75215    0.74792   1.00
C3a      0.58116    0.78605    0.73955   1.00
H1       0.59631    0.81290    0.73244   1.00
C3a      0.58296    0.71740    0.75713   1.00
H1       0.59949    0.69121    0.76359   1.00
C3b      0.54062    0.78558    0.74027   1.00
C5       0.51856    0.82254    0.73112   1.00
H2       0.50016    0.83101    0.75637   1.00
H2       0.53839    0.84728    0.72449   1.00
H2       0.49940    0.81795    0.70545   1.00
C3b      0.54244    0.71617    0.75804   1.00
C5       0.52233    0.67832    0.76805   1.00
H2       0.50330    0.66906    0.74356   1.00
H2       0.54345    0.65444    0.77386   1.00
H2       0.50406    0.68212    0.79448   1.00
C4       0.52127    0.75045    0.74957   1.00
C4       0.47873    0.74955    0.75043   1.00
C3b      0.45899    0.75803    0.78555   1.00
C5       0.48063    0.76806    0.82254   1.00
H2       0.49871    0.79451    0.81797   1.00
H2       0.46051    0.77387    0.84726   1.00
H2       0.50005    0.74360    0.83101   1.00
C3b      0.45796    0.74023    0.71613   1.00
C5       0.47848    0.73108    0.67829   1.00
H2       0.49783    0.70542    0.68210   1.00
H2       0.45765    0.72441    0.65440   1.00
H2       0.49650    0.75633    0.66906   1.00
C3a      0.41845    0.75708    0.78599   1.00
H1       0.40300    0.76355    0.81283   1.00
C3a      0.41743    0.73947    0.71733   1.00
H1       0.40119    0.73234    0.69113   1.00
C2       0.39757    0.74785    0.75208   1.00
C2       0.89757    0.75215    0.75208   1.00
C3a      0.91884    0.78605    0.76045   1.00
H1       0.90369    0.81290    0.76756   1.00
C3a      0.91704    0.71740    0.74287   1.00
H1       0.90051    0.69121    0.73641   1.00
C3b      0.95938    0.78558    0.75973   1.00
C5       0.98144    0.82254    0.76888   1.00
H2       0.99984    0.83101    0.74363   1.00
H2       0.96161    0.84728    0.77551   1.00
H2       1.00060    0.81795    0.79455   1.00
C3b      0.95756    0.71617    0.74196   1.00
C5       0.97767    0.67832    0.73195   1.00
H2       0.99670    0.66906    0.75644   1.00
H2       0.95655    0.65444    0.72614   1.00
H2       0.99594    0.68212    0.70552   1.00
C4       0.97873    0.75045    0.75043   1.00
C4       1.02127    0.74955    0.74957   1.00
C3b      1.04101    0.75803    0.71445   1.00
C5       1.01937    0.76806    0.67746   1.00
H2       1.00129    0.79451    0.68203   1.00
H2       1.03949    0.77387    0.65274   1.00
H2       0.99995    0.74360    0.66899   1.00
C3b      1.04204    0.74023    0.78387   1.00
C5       1.02152    0.73108    0.82171   1.00
H2       1.00217    0.70542    0.81790   1.00
H2       1.04235    0.72441    0.84560   1.00
H2       1.00350    0.75633    0.83094   1.00
C3a      1.08155    0.75708    0.71401   1.00
H1       1.09700    0.76355    0.68717   1.00
C3a      1.08257    0.73947    0.78267   1.00
H1       1.09881    0.73234    0.80887   1.00
C2       1.10243    0.74785    0.74792   1.00
C2       0.74792    0.60243    0.75215   1.00
C3a      0.73955    0.58116    0.78605   1.00
H1       0.73244    0.59631    0.81290   1.00
C3a      0.75713    0.58296    0.71740   1.00
H1       0.76359    0.59949    0.69121   1.00
C3b      0.74027    0.54062    0.78558   1.00
C5       0.73112    0.51856    0.82254   1.00
H2       0.75637    0.50016    0.83101   1.00
H2       0.72449    0.53839    0.84728   1.00
H2       0.70545    0.49940    0.81795   1.00
C3b      0.75804    0.54244    0.71617   1.00
C5       0.76805    0.52233    0.67832   1.00
H2       0.74356    0.50330    0.66906   1.00
H2       0.77386    0.54345    0.65444   1.00
H2       0.79448    0.50406    0.68212   1.00
C4       0.74957    0.52127    0.75045   1.00
C4       0.75043    0.47873    0.74955   1.00
C3b      0.78555    0.45899    0.75803   1.00
C5       0.82254    0.48063    0.76806   1.00
H2       0.81797    0.49871    0.79451   1.00
H2       0.84726    0.46051    0.77387   1.00
H2       0.83101    0.50005    0.74360   1.00
C3b      0.71613    0.45796    0.74023   1.00
C5       0.67829    0.47848    0.73108   1.00
H2       0.68210    0.49783    0.70542   1.00
H2       0.65440    0.45765    0.72441   1.00
H2       0.66906    0.49650    0.75633   1.00
C3a      0.78599    0.41845    0.75708   1.00
H1       0.81283    0.40300    0.76355   1.00
C3a      0.71733    0.41743    0.73947   1.00
H1       0.69113    0.40119    0.73234   1.00
C2       0.75208    0.39757    0.74785   1.00
C2       0.75215    0.74792    0.60243   1.00
C3a      0.78605    0.73955    0.58116   1.00
H1       0.81290    0.73244    0.59631   1.00
C3a      0.71740    0.75713    0.58296   1.00
H1       0.69121    0.76359    0.59949   1.00
C3b      0.78558    0.74027    0.54062   1.00
C5       0.82254    0.73112    0.51856   1.00
H2       0.83101    0.75637    0.50016   1.00
H2       0.84728    0.72449    0.53839   1.00
H2       0.81795    0.70545    0.49940   1.00
C3b      0.71617    0.75804    0.54244   1.00
C5       0.67832    0.76805    0.52233   1.00
H2       0.66906    0.74356    0.50330   1.00
H2       0.65444    0.77386    0.54345   1.00
H2       0.68212    0.79448    0.50406   1.00
C4       0.75045    0.74957    0.52127   1.00
C4       0.74955    0.75043    0.47873   1.00
C3b      0.75803    0.78555    0.45899   1.00
C5       0.76806    0.82254    0.48063   1.00
H2       0.79451    0.81797    0.49871   1.00
H2       0.77387    0.84726    0.46051   1.00
H2       0.74360    0.83101    0.50005   1.00
C3b      0.74023    0.71613    0.45796   1.00
C5       0.73108    0.67829    0.47848   1.00
H2       0.70542    0.68210    0.49783   1.00
H2       0.72441    0.65440    0.45765   1.00
H2       0.75633    0.66906    0.49650   1.00
C3a      0.75708    0.78599    0.41845   1.00
H1       0.76355    0.81283    0.40300   1.00
C3a      0.73947    0.71733    0.41743   1.00
H1       0.73234    0.69113    0.40119   1.00
C2       0.74785    0.75208    0.39757   1.00
C2       0.25215    0.25208    0.89757   1.00
C3a      0.28605    0.26045    0.91884   1.00
H1       0.31290    0.26756    0.90369   1.00
C3a      0.21740    0.24287    0.91704   1.00
H1       0.19121    0.23641    0.90051   1.00
C3b      0.28558    0.25973    0.95938   1.00
C5       0.32254    0.26888    0.98144   1.00
H2       0.33101    0.24363    0.99984   1.00
H2       0.34728    0.27551    0.96161   1.00
H2       0.31795    0.29455    1.00060   1.00
C3b      0.21617    0.24196    0.95756   1.00
C5       0.17832    0.23195    0.97767   1.00
H2       0.16906    0.25644    0.99670   1.00
H2       0.15444    0.22614    0.95655   1.00
H2       0.18212    0.20552    0.99594   1.00
C4       0.25045    0.25043    0.97873   1.00
C4       0.24955    0.24957    1.02127   1.00
C3b      0.25803    0.21445    1.04101   1.00
C5       0.26806    0.17746    1.01937   1.00
H2       0.29451    0.18203    1.00129   1.00
H2       0.27387    0.15274    1.03949   1.00
H2       0.24360    0.16899    0.99995   1.00
C3b      0.24023    0.28387    1.04204   1.00
C5       0.23108    0.32171    1.02152   1.00
H2       0.20542    0.31790    1.00217   1.00
H2       0.22441    0.34560    1.04235   1.00
H2       0.25633    0.33094    1.00350   1.00
C3a      0.25708    0.21401    1.08155   1.00
H1       0.26355    0.18717    1.09700   1.00
C3a      0.23947    0.28267    1.08257   1.00
H1       0.23234    0.30887    1.09881   1.00
C2       0.24785    0.24792    1.10243   1.00
C2       0.25208    0.39757    0.75215   1.00
C3a      0.26045    0.41884    0.78605   1.00
H1       0.26756    0.40369    0.81290   1.00
C3a      0.24287    0.41704    0.71740   1.00
H1       0.23641    0.40051    0.69121   1.00
C3b      0.25973    0.45938    0.78558   1.00
C5       0.26888    0.48144    0.82254   1.00
H2       0.24363    0.49984    0.83101   1.00
H2       0.27551    0.46161    0.84728   1.00
H2       0.29455    0.50060    0.81795   1.00
C3b      0.24196    0.45756    0.71617   1.00
C5       0.23195    0.47767    0.67832   1.00
H2       0.25644    0.49670    0.66906   1.00
H2       0.22614    0.45655    0.65444   1.00
H2       0.20552    0.49594    0.68212   1.00
C4       0.25043    0.47873    0.75045   1.00
C4       0.24957    0.52127    0.74955   1.00
C3b      0.21445    0.54101    0.75803   1.00
C5       0.17746    0.51937    0.76806   1.00
H2       0.18203    0.50129    0.79451   1.00
H2       0.15274    0.53949    0.77387   1.00
H2       0.16899    0.49995    0.74360   1.00
C3b      0.28387    0.54204    0.74023   1.00
C5       0.32171    0.52152    0.73108   1.00
H2       0.31790    0.50217    0.70542   1.00
H2       0.34560    0.54235    0.72441   1.00
H2       0.33094    0.50350    0.75633   1.00
C3a      0.21401    0.58155    0.75708   1.00
H1       0.18717    0.59700    0.76355   1.00
C3a      0.28267    0.58257    0.73947   1.00
H1       0.30887    0.59881    0.73234   1.00
C2       0.24792    0.60243    0.74785   1.00
C2       0.10243    0.25215    0.74792   1.00
C3a      0.08116    0.28605    0.73955   1.00
H1       0.09631    0.31290    0.73244   1.00
C3a      0.08296    0.21740    0.75713   1.00
H1       0.09949    0.19121    0.76359   1.00
C3b      0.04062    0.28558    0.74027   1.00
C5       0.01856    0.32254    0.73112   1.00
H2       0.00016    0.33101    0.75637   1.00
H2       0.03839    0.34728    0.72449   1.00
H2       -0.00060   0.31795    0.70545   1.00
C3b      0.04244    0.21617    0.75804   1.00
C5       0.02233    0.17832    0.76805   1.00
H2       0.00330    0.16906    0.74356   1.00
H2       0.04345    0.15444    0.77386   1.00
H2       0.00406    0.18212    0.79448   1.00
C4       0.02127    0.25045    0.74957   1.00
C4       -0.02127   0.24955    0.75043   1.00
C3b      -0.04101   0.25803    0.78555   1.00
C5       -0.01937   0.26806    0.82254   1.00
H2       -0.00129   0.29451    0.81797   1.00
H2       -0.03949   0.27387    0.84726   1.00
H2       0.00005    0.24360    0.83101   1.00
C3b      -0.04204   0.24023    0.71613   1.00
C5       -0.02152   0.23108    0.67829   1.00
H2       -0.00217   0.20542    0.68210   1.00
H2       -0.04235   0.22441    0.65440   1.00
H2       -0.00350   0.25633    0.66906   1.00
C3a      -0.08155   0.25708    0.78599   1.00
H1       -0.09700   0.26355    0.81283   1.00
C3a      -0.08257   0.23947    0.71733   1.00
H1       -0.09881   0.23234    0.69113   1.00
C2       -0.10243   0.24785    0.75208   1.00
C2       0.39757    0.25215    0.75208   1.00
C3a      0.41884    0.28605    0.76045   1.00
H1       0.40369    0.31290    0.76756   1.00
C3a      0.41704    0.21740    0.74287   1.00
H1       0.40051    0.19121    0.73641   1.00
C3b      0.45938    0.28558    0.75973   1.00
C5       0.48144    0.32254    0.76888   1.00
H2       0.49984    0.33101    0.74363   1.00
H2       0.46161    0.34728    0.77551   1.00
H2       0.50060    0.31795    0.79455   1.00
C3b      0.45756    0.21617    0.74196   1.00
C5       0.47767    0.17832    0.73195   1.00
H2       0.49670    0.16906    0.75644   1.00
H2       0.45655    0.15444    0.72614   1.00
H2       0.49594    0.18212    0.70552   1.00
C4       0.47873    0.25045    0.75043   1.00
C4       0.52127    0.24955    0.74957   1.00
C3b      0.54101    0.25803    0.71445   1.00
C5       0.51937    0.26806    0.67746   1.00
H2       0.50129    0.29451    0.68203   1.00
H2       0.53949    0.27387    0.65274   1.00
H2       0.49995    0.24360    0.66899   1.00
C3b      0.54204    0.24023    0.78387   1.00
C5       0.52152    0.23108    0.82171   1.00
H2       0.50217    0.20542    0.81790   1.00
H2       0.54235    0.22441    0.84560   1.00
H2       0.50350    0.25633    0.83094   1.00
C3a      0.58155    0.25708    0.71401   1.00
H1       0.59700    0.26355    0.68717   1.00
C3a      0.58257    0.23947    0.78267   1.00
H1       0.59881    0.23234    0.80887   1.00
C2       0.60243    0.24785    0.74792   1.00
C2       0.24792    0.10243    0.75215   1.00
C3a      0.23955    0.08116    0.78605   1.00
H1       0.23244    0.09631    0.81290   1.00
C3a      0.25713    0.08296    0.71740   1.00
H1       0.26359    0.09949    0.69121   1.00
C3b      0.24027    0.04062    0.78558   1.00
C5       0.23112    0.01856    0.82254   1.00
H2       0.25637    0.00016    0.83101   1.00
H2       0.22449    0.03839    0.84728   1.00
H2       0.20545    -0.00060   0.81795   1.00
C3b      0.25804    0.04244    0.71617   1.00
C5       0.26805    0.02233    0.67832   1.00
H2       0.24356    0.00330    0.66906   1.00
H2       0.27386    0.04345    0.65444   1.00
H2       0.29448    0.00406    0.68212   1.00
C4       0.24957    0.02127    0.75045   1.00
C4       0.25043    -0.02127   0.74955   1.00
C3b      0.28555    -0.04101   0.75803   1.00
C5       0.32254    -0.01937   0.76806   1.00
H2       0.31797    -0.00129   0.79451   1.00
H2       0.34726    -0.03949   0.77387   1.00
H2       0.33101    0.00005    0.74360   1.00
C3b      0.21613    -0.04204   0.74023   1.00
C5       0.17829    -0.02152   0.73108   1.00
H2       0.18210    -0.00217   0.70542   1.00
H2       0.15440    -0.04235   0.72441   1.00
H2       0.16906    -0.00350   0.75633   1.00
C3a      0.28599    -0.08155   0.75708   1.00
H1       0.31283    -0.09700   0.76355   1.00
C3a      0.21733    -0.08257   0.73947   1.00
H1       0.19113    -0.09881   0.73234   1.00
C2       0.25208    -0.10243   0.74785   1.00
C2       0.25215    0.24792    0.60243   1.00
C3a      0.28605    0.23955    0.58116   1.00
H1       0.31290    0.23244    0.59631   1.00
C3a      0.21740    0.25713    0.58296   1.00
H1       0.19121    0.26359    0.59949   1.00
C3b      0.28558    0.24027    0.54062   1.00
C5       0.32254    0.23112    0.51856   1.00
H2       0.33101    0.25637    0.50016   1.00
H2       0.34728    0.22449    0.53839   1.00
H2       0.31795    0.20545    0.49940   1.00
C3b      0.21617    0.25804    0.54244   1.00
C5       0.17832    0.26805    0.52233   1.00
H2       0.16906    0.24356    0.50330   1.00
H2       0.15444    0.27386    0.54345   1.00
H2       0.18212    0.29448    0.50406   1.00
C4       0.25045    0.24957    0.52127   1.00
C4       0.24955    0.25043    0.47873   1.00
C3b      0.25803    0.28555    0.45899   1.00
C5       0.26806    0.32254    0.48063   1.00
H2       0.29451    0.31797    0.49871   1.00
H2       0.27387    0.34726    0.46051   1.00
H2       0.24360    0.33101    0.50005   1.00
C3b      0.24023    0.21613    0.45796   1.00
C5       0.23108    0.17829    0.47848   1.00
H2       0.20542    0.18210    0.49783   1.00
H2       0.22441    0.15440    0.45765   1.00
H2       0.25633    0.16906    0.49650   1.00
C3a      0.25708    0.28599    0.41845   1.00
H1       0.26355    0.31283    0.40300   1.00
C3a      0.23947    0.21733    0.41743   1.00
H1       0.23234    0.19113    0.40119   1.00
C2       0.24785    0.25208    0.39757   1.00
C2       0.25215    0.75208    0.39757   1.00
C3a      0.28605    0.76045    0.41884   1.00
H1       0.31290    0.76756    0.40369   1.00
C3a      0.21740    0.74287    0.41704   1.00
H1       0.19121    0.73641    0.40051   1.00
C3b      0.28558    0.75973    0.45938   1.00
C5       0.32254    0.76888    0.48144   1.00
H2       0.33101    0.74363    0.49984   1.00
H2       0.34728    0.77551    0.46161   1.00
H2       0.31795    0.79455    0.50060   1.00
C3b      0.21617    0.74196    0.45756   1.00
C5       0.17832    0.73195    0.47767   1.00
H2       0.16906    0.75644    0.49670   1.00
H2       0.15444    0.72614    0.45655   1.00
H2       0.18212    0.70552    0.49594   1.00
C4       0.25045    0.75043    0.47873   1.00
C4       0.24955    0.74957    0.52127   1.00
C3b      0.25803    0.71445    0.54101   1.00
C5       0.26806    0.67746    0.51937   1.00
H2       0.29451    0.68203    0.50129   1.00
H2       0.27387    0.65274    0.53949   1.00
H2       0.24360    0.66899    0.49995   1.00
C3b      0.24023    0.78387    0.54204   1.00
C5       0.23108    0.82171    0.52152   1.00
H2       0.20542    0.81790    0.50217   1.00
H2       0.22441    0.84560    0.54235   1.00
H2       0.25633    0.83094    0.50350   1.00
C3a      0.25708    0.71401    0.58155   1.00
H1       0.26355    0.68717    0.59700   1.00
C3a      0.23947    0.78267    0.58257   1.00
H1       0.23234    0.80887    0.59881   1.00
C2       0.24785    0.74792    0.60243   1.00
C2       0.25208    0.89757    0.25215   1.00
C3a      0.26045    0.91884    0.28605   1.00
H1       0.26756    0.90369    0.31290   1.00
C3a      0.24287    0.91704    0.21740   1.00
H1       0.23641    0.90051    0.19121   1.00
C3b      0.25973    0.95938    0.28558   1.00
C5       0.26888    0.98144    0.32254   1.00
H2       0.24363    0.99984    0.33101   1.00
H2       0.27551    0.96161    0.34728   1.00
H2       0.29455    1.00060    0.31795   1.00
C3b      0.24196    0.95756    0.21617   1.00
C5       0.23195    0.97767    0.17832   1.00
H2       0.25644    0.99670    0.16906   1.00
H2       0.22614    0.95655    0.15444   1.00
H2       0.20552    0.99594    0.18212   1.00
C4       0.25043    0.97873    0.25045   1.00
C4       0.24957    1.02127    0.24955   1.00
C3b      0.21445    1.04101    0.25803   1.00
C5       0.17746    1.01937    0.26806   1.00
H2       0.18203    1.00129    0.29451   1.00
H2       0.15274    1.03949    0.27387   1.00
H2       0.16899    0.99995    0.24360   1.00
C3b      0.28387    1.04204    0.24023   1.00
C5       0.32171    1.02152    0.23108   1.00
H2       0.31790    1.00217    0.20542   1.00
H2       0.34560    1.04235    0.22441   1.00
H2       0.33094    1.00350    0.25633   1.00
C3a      0.21401    1.08155    0.25708   1.00
H1       0.18717    1.09700    0.26355   1.00
C3a      0.28267    1.08257    0.23947   1.00
H1       0.30887    1.09881    0.23234   1.00
C2       0.24792    1.10243    0.24785   1.00
C2       0.10243    0.75215    0.24792   1.00
C3a      0.08116    0.78605    0.23955   1.00
H1       0.09631    0.81290    0.23244   1.00
C3a      0.08296    0.71740    0.25713   1.00
H1       0.09949    0.69121    0.26359   1.00
C3b      0.04062    0.78558    0.24027   1.00
C5       0.01856    0.82254    0.23112   1.00
H2       0.00016    0.83101    0.25637   1.00
H2       0.03839    0.84728    0.22449   1.00
H2       -0.00060   0.81795    0.20545   1.00
C3b      0.04244    0.71617    0.25804   1.00
C5       0.02233    0.67832    0.26805   1.00
H2       0.00330    0.66906    0.24356   1.00
H2       0.04345    0.65444    0.27386   1.00
H2       0.00406    0.68212    0.29448   1.00
C4       0.02127    0.75045    0.24957   1.00
C4       -0.02127   0.74955    0.25043   1.00
C3b      -0.04101   0.75803    0.28555   1.00
C5       -0.01937   0.76806    0.32254   1.00
H2       -0.00129   0.79451    0.31797   1.00
H2       -0.03949   0.77387    0.34726   1.00
H2       0.00005    0.74360    0.33101   1.00
C3b      -0.04204   0.74023    0.21613   1.00
C5       -0.02152   0.73108    0.17829   1.00
H2       -0.00217   0.70542    0.18210   1.00
H2       -0.04235   0.72441    0.15440   1.00
H2       -0.00350   0.75633    0.16906   1.00
C3a      -0.08155   0.75708    0.28599   1.00
H1       -0.09700   0.76355    0.31283   1.00
C3a      -0.08257   0.73947    0.21733   1.00
H1       -0.09881   0.73234    0.19113   1.00
C2       -0.10243   0.74785    0.25208   1.00
C2       0.39757    0.75215    0.25208   1.00
C3a      0.41884    0.78605    0.26045   1.00
H1       0.40369    0.81290    0.26756   1.00
C3a      0.41704    0.71740    0.24287   1.00
H1       0.40051    0.69121    0.23641   1.00
C3b      0.45938    0.78558    0.25973   1.00
C5       0.48144    0.82254    0.26888   1.00
H2       0.49984    0.83101    0.24363   1.00
H2       0.46161    0.84728    0.27551   1.00
H2       0.50060    0.81795    0.29455   1.00
C3b      0.45756    0.71617    0.24196   1.00
C5       0.47767    0.67832    0.23195   1.00
H2       0.49670    0.66906    0.25644   1.00
H2       0.45655    0.65444    0.22614   1.00
H2       0.49594    0.68212    0.20552   1.00
C4       0.47873    0.75045    0.25043   1.00
C4       0.52127    0.74955    0.24957   1.00
C3b      0.54101    0.75803    0.21445   1.00
C5       0.51937    0.76806    0.17746   1.00
H2       0.50129    0.79451    0.18203   1.00
H2       0.53949    0.77387    0.15274   1.00
H2       0.49995    0.74360    0.16899   1.00
C3b      0.54204    0.74023    0.28387   1.00
C5       0.52152    0.73108    0.32171   1.00
H2       0.50217    0.70542    0.31790   1.00
H2       0.54235    0.72441    0.34560   1.00
H2       0.50350    0.75633    0.33094   1.00
C3a      0.58155    0.75708    0.21401   1.00
H1       0.59700    0.76355    0.18717   1.00
C3a      0.58257    0.73947    0.28267   1.00
H1       0.59881    0.73234    0.30887   1.00
C2       0.60243    0.74785    0.24792   1.00
C2       0.24792    0.60243    0.25215   1.00
C3a      0.23955    0.58116    0.28605   1.00
H1       0.23244    0.59631    0.31290   1.00
C3a      0.25713    0.58296    0.21740   1.00
H1       0.26359    0.59949    0.19121   1.00
C3b      0.24027    0.54062    0.28558   1.00
C5       0.23112    0.51856    0.32254   1.00
H2       0.25637    0.50016    0.33101   1.00
H2       0.22449    0.53839    0.34728   1.00
H2       0.20545    0.49940    0.31795   1.00
C3b      0.25804    0.54244    0.21617   1.00
C5       0.26805    0.52233    0.17832   1.00
H2       0.24356    0.50330    0.16906   1.00
H2       0.27386    0.54345    0.15444   1.00
H2       0.29448    0.50406    0.18212   1.00
C4       0.24957    0.52127    0.25045   1.00
C4       0.25043    0.47873    0.24955   1.00
C3b      0.28555    0.45899    0.25803   1.00
C5       0.32254    0.48063    0.26806   1.00
H2       0.31797    0.49871    0.29451   1.00
H2       0.34726    0.46051    0.27387   1.00
H2       0.33101    0.50005    0.24360   1.00
C3b      0.21613    0.45796    0.24023   1.00
C5       0.17829    0.47848    0.23108   1.00
H2       0.18210    0.49783    0.20542   1.00
H2       0.15440    0.45765    0.22441   1.00
H2       0.16906    0.49650    0.25633   1.00
C3a      0.28599    0.41845    0.25708   1.00
H1       0.31283    0.40300    0.26355   1.00
C3a      0.21733    0.41743    0.23947   1.00
H1       0.19113    0.40119    0.23234   1.00
C2       0.25208    0.39757    0.24785   1.00
C2       0.25215    0.74792    0.10243   1.00
C3a      0.28605    0.73955    0.08116   1.00
H1       0.31290    0.73244    0.09631   1.00
C3a      0.21740    0.75713    0.08296   1.00
H1       0.19121    0.76359    0.09949   1.00
C3b      0.28558    0.74027    0.04062   1.00
C5       0.32254    0.73112    0.01856   1.00
H2       0.33101    0.75637    0.00016   1.00
H2       0.34728    0.72449    0.03839   1.00
H2       0.31795    0.70545    -0.00060   1.00
C3b      0.21617    0.75804    0.04244   1.00
C5       0.17832    0.76805    0.02233   1.00
H2       0.16906    0.74356    0.00330   1.00
H2       0.15444    0.77386    0.04345   1.00
H2       0.18212    0.79448    0.00406   1.00
C4       0.25045    0.74957    0.02127   1.00
C4       0.24955    0.75043    -0.02127   1.00
C3b      0.25803    0.78555    -0.04101   1.00
C5       0.26806    0.82254    -0.01937   1.00
H2       0.29451    0.81797    -0.00129   1.00
H2       0.27387    0.84726    -0.03949   1.00
H2       0.24360    0.83101    0.00005   1.00
C3b      0.24023    0.71613    -0.04204   1.00
C5       0.23108    0.67829    -0.02152   1.00
H2       0.20542    0.68210    -0.00217   1.00
H2       0.22441    0.65440    -0.04235   1.00
H2       0.25633    0.66906    -0.00350   1.00
C3a      0.25708    0.78599    -0.08155   1.00
H1       0.26355    0.81283    -0.09700   1.00
C3a      0.23947    0.71733    -0.08257   1.00
H1       0.23234    0.69113    -0.09881   1.00
C2       0.24785    0.75208    -0.10243   1.00
C2       0.75215    0.25208    0.39757   1.00
C3a      0.78605    0.26045    0.41884   1.00
H1       0.81290    0.26756    0.40369   1.00
C3a      0.71740    0.24287    0.41704   1.00
H1       0.69121    0.23641    0.40051   1.00
C3b      0.78558    0.25973    0.45938   1.00
C5       0.82254    0.26888    0.48144   1.00
H2       0.83101    0.24363    0.49984   1.00
H2       0.84728    0.27551    0.46161   1.00
H2       0.81795    0.29455    0.50060   1.00
C3b      0.71617    0.24196    0.45756   1.00
C5       0.67832    0.23195    0.47767   1.00
H2       0.66906    0.25644    0.49670   1.00
H2       0.65444    0.22614    0.45655   1.00
H2       0.68212    0.20552    0.49594   1.00
C4       0.75045    0.25043    0.47873   1.00
C4       0.74955    0.24957    0.52127   1.00
C3b      0.75803    0.21445    0.54101   1.00
C5       0.76806    0.17746    0.51937   1.00
H2       0.79451    0.18203    0.50129   1.00
H2       0.77387    0.15274    0.53949   1.00
H2       0.74360    0.16899    0.49995   1.00
C3b      0.74023    0.28387    0.54204   1.00
C5       0.73108    0.32171    0.52152   1.00
H2       0.70542    0.31790    0.50217   1.00
H2       0.72441    0.34560    0.54235   1.00
H2       0.75633    0.33094    0.50350   1.00
C3a      0.75708    0.21401    0.58155   1.00
H1       0.76355    0.18717    0.59700   1.00
C3a      0.73947    0.28267    0.58257   1.00
H1       0.73234    0.30887    0.59881   1.00
C2       0.74785    0.24792    0.60243   1.00
C2       0.75208    0.39757    0.25215   1.00
C3a      0.76045    0.41884    0.28605   1.00
H1       0.76756    0.40369    0.31290   1.00
C3a      0.74287    0.41704    0.21740   1.00
H1       0.73641    0.40051    0.19121   1.00
C3b      0.75973    0.45938    0.28558   1.00
C5       0.76888    0.48144    0.32254   1.00
H2       0.74363    0.49984    0.33101   1.00
H2       0.77551    0.46161    0.34728   1.00
H2       0.79455    0.50060    0.31795   1.00
C3b      0.74196    0.45756    0.21617   1.00
C5       0.73195    0.47767    0.17832   1.00
H2       0.75644    0.49670    0.16906   1.00
H2       0.72614    0.45655    0.15444   1.00
H2       0.70552    0.49594    0.18212   1.00
C4       0.75043    0.47873    0.25045   1.00
C4       0.74957    0.52127    0.24955   1.00
C3b      0.71445    0.54101    0.25803   1.00
C5       0.67746    0.51937    0.26806   1.00
H2       0.68203    0.50129    0.29451   1.00
H2       0.65274    0.53949    0.27387   1.00
H2       0.66899    0.49995    0.24360   1.00
C3b      0.78387    0.54204    0.24023   1.00
C5       0.82171    0.52152    0.23108   1.00
H2       0.81790    0.50217    0.20542   1.00
H2       0.84560    0.54235    0.22441   1.00
H2       0.83094    0.50350    0.25633   1.00
C3a      0.71401    0.58155    0.25708   1.00
H1       0.68717    0.59700    0.26355   1.00
C3a      0.78267    0.58257    0.23947   1.00
H1       0.80887    0.59881    0.23234   1.00
C2       0.74792    0.60243    0.24785   1.00
C2       0.60243    0.25215    0.24792   1.00
C3a      0.58116    0.28605    0.23955   1.00
H1       0.59631    0.31290    0.23244   1.00
C3a      0.58296    0.21740    0.25713   1.00
H1       0.59949    0.19121    0.26359   1.00
C3b      0.54062    0.28558    0.24027   1.00
C5       0.51856    0.32254    0.23112   1.00
H2       0.50016    0.33101    0.25637   1.00
H2       0.53839    0.34728    0.22449   1.00
H2       0.49940    0.31795    0.20545   1.00
C3b      0.54244    0.21617    0.25804   1.00
C5       0.52233    0.17832    0.26805   1.00
H2       0.50330    0.16906    0.24356   1.00
H2       0.54345    0.15444    0.27386   1.00
H2       0.50406    0.18212    0.29448   1.00
C4       0.52127    0.25045    0.24957   1.00
C4       0.47873    0.24955    0.25043   1.00
C3b      0.45899    0.25803    0.28555   1.00
C5       0.48063    0.26806    0.32254   1.00
H2       0.49871    0.29451    0.31797   1.00
H2       0.46051    0.27387    0.34726   1.00
H2       0.50005    0.24360    0.33101   1.00
C3b      0.45796    0.24023    0.21613   1.00
C5       0.47848    0.23108    0.17829   1.00
H2       0.49783    0.20542    0.18210   1.00
H2       0.45765    0.22441    0.15440   1.00
H2       0.49650    0.25633    0.16906   1.00
C3a      0.41845    0.25708    0.28599   1.00
H1       0.40300    0.26355    0.31283   1.00
C3a      0.41743    0.23947    0.21733   1.00
H1       0.40119    0.23234    0.19113   1.00
C2       0.39757    0.24785    0.25208   1.00
C2       0.89757    0.25215    0.25208   1.00
C3a      0.91884    0.28605    0.26045   1.00
H1       0.90369    0.31290    0.26756   1.00
C3a      0.91704    0.21740    0.24287   1.00
H1       0.90051    0.19121    0.23641   1.00
C3b      0.95938    0.28558    0.25973   1.00
C5       0.98144    0.32254    0.26888   1.00
H2       0.99984    0.33101    0.24363   1.00
H2       0.96161    0.34728    0.27551   1.00
H2       1.00060    0.31795    0.29455   1.00
C3b      0.95756    0.21617    0.24196   1.00
C5       0.97767    0.17832    0.23195   1.00
H2       0.99670    0.16906    0.25644   1.00
H2       0.95655    0.15444    0.22614   1.00
H2       0.99594    0.18212    0.20552   1.00
C4       0.97873    0.25045    0.25043   1.00
C4       1.02127    0.24955    0.24957   1.00
C3b      1.04101    0.25803    0.21445   1.00
C5       1.01937    0.26806    0.17746   1.00
H2       1.00129    0.29451    0.18203   1.00
H2       1.03949    0.27387    0.15274   1.00
H2       0.99995    0.24360    0.16899   1.00
C3b      1.04204    0.24023    0.28387   1.00
C5       1.02152    0.23108    0.32171   1.00
H2       1.00217    0.20542    0.31790   1.00
H2       1.04235    0.22441    0.34560   1.00
H2       1.00350    0.25633    0.33094   1.00
C3a      1.08155    0.25708    0.21401   1.00
H1       1.09700    0.26355    0.18717   1.00
C3a      1.08257    0.23947    0.28267   1.00
H1       1.09881    0.23234    0.30887   1.00
C2       1.10243    0.24785    0.24792   1.00
C2       0.74792    0.10243    0.25215   1.00
C3a      0.73955    0.08116    0.28605   1.00
H1       0.73244    0.09631    0.31290   1.00
C3a      0.75713    0.08296    0.21740   1.00
H1       0.76359    0.09949    0.19121   1.00
C3b      0.74027    0.04062    0.28558   1.00
C5       0.73112    0.01856    0.32254   1.00
H2       0.75637    0.00016    0.33101   1.00
H2       0.72449    0.03839    0.34728   1.00
H2       0.70545    -0.00060   0.31795   1.00
C3b      0.75804    0.04244    0.21617   1.00
C5       0.76805    0.02233    0.17832   1.00
H2       0.74356    0.00330    0.16906   1.00
H2       0.77386    0.04345    0.15444   1.00
H2       0.79448    0.00406    0.18212   1.00
C4       0.74957    0.02127    0.25045   1.00
C4       0.75043    -0.02127   0.24955   1.00
C3b      0.78555    -0.04101   0.25803   1.00
C5       0.82254    -0.01937   0.26806   1.00
H2       0.81797    -0.00129   0.29451   1.00
H2       0.84726    -0.03949   0.27387   1.00
H2       0.83101    0.00005    0.24360   1.00
C3b      0.71613    -0.04204   0.24023   1.00
C5       0.67829    -0.02152   0.23108   1.00
H2       0.68210    -0.00217   0.20542   1.00
H2       0.65440    -0.04235   0.22441   1.00
H2       0.66906    -0.00350   0.25633   1.00
C3a      0.78599    -0.08155   0.25708   1.00
H1       0.81283    -0.09700   0.26355   1.00
C3a      0.71733    -0.08257   0.23947   1.00
H1       0.69113    -0.09881   0.23234   1.00
C2       0.75208    -0.10243   0.24785   1.00
C2       0.75215    0.24792    0.10243   1.00
C3a      0.78605    0.23955    0.08116   1.00
H1       0.81290    0.23244    0.09631   1.00
C3a      0.71740    0.25713    0.08296   1.00
H1       0.69121    0.26359    0.09949   1.00
C3b      0.78558    0.24027    0.04062   1.00
C5       0.82254    0.23112    0.01856   1.00
H2       0.83101    0.25637    0.00016   1.00
H2       0.84728    0.22449    0.03839   1.00
H2       0.81795    0.20545    -0.00060   1.00
C3b      0.71617    0.25804    0.04244   1.00
C5       0.67832    0.26805    0.02233   1.00
H2       0.66906    0.24356    0.00330   1.00
H2       0.65444    0.27386    0.04345   1.00
H2       0.68212    0.29448    0.00406   1.00
C4       0.75045    0.24957    0.02127   1.00
C4       0.74955    0.25043    -0.02127   1.00
C3b      0.75803    0.28555    -0.04101   1.00
C5       0.76806    0.32254    -0.01937   1.00
H2       0.79451    0.31797    -0.00129   1.00
H2       0.77387    0.34726    -0.03949   1.00
H2       0.74360    0.33101    0.00005   1.00
C3b      0.74023    0.21613    -0.04204   1.00
C5       0.73108    0.17829    -0.02152   1.00
H2       0.70542    0.18210    -0.00217   1.00
H2       0.72441    0.15440    -0.04235   1.00
H2       0.75633    0.16906    -0.00350   1.00
C3a      0.75708    0.28599    -0.08155   1.00
H1       0.76355    0.31283    -0.09700   1.00
C3a      0.73947    0.21733    -0.08257   1.00
H1       0.73234    0.19113    -0.09881   1.00
C2       0.74785    0.25208    -0.10243   1.00
