data_IRMOF10_SG202_Ligand1_label_e.

_audit_creation_method             'generated by an auxiliary program of Tobunporous'

_symmetry_space_group_name_H-M     'P 1'
_symmetry_Int_Tables_number        1
_symmetry_cell_setting             triclinic

_cell_length_a                    34.2800
_cell_length_b                    34.2800
_cell_length_c                    34.2800
_cell_angle_alpha                 90.0000
_cell_angle_beta                  90.0000
_cell_angle_gamma                 90.0000

loop_
_atom_site_label
_atom_site_fract_x
_atom_site_fract_y
_atom_site_fract_z
_atom_site_occupancy
O1       0.75000    0.75000    0.75000   1.00
Zn1      0.71720    0.78280    0.78280   1.00
Zn1      0.78280    0.71720    0.78280   1.00
Zn1      0.78280    0.78280    0.71720   1.00
Zn1      0.71720    0.71720    0.71720   1.00
O2       0.72650    0.77350    0.83820   1.00
O2       0.72650    0.83820    0.77350   1.00
O2       0.66180    0.77350    0.77350   1.00
O2       0.77350    0.72650    0.83820   1.00
O2       0.83820    0.72650    0.77350   1.00
O2       0.77350    0.66180    0.77350   1.00
O2       0.77350    0.83820    0.72650   1.00
O2       0.83820    0.77350    0.72650   1.00
O2       0.77350    0.77350    0.66180   1.00
O2       0.66180    0.72650    0.72650   1.00
O2       0.72650    0.66180    0.72650   1.00
O2       0.72650    0.72650    0.66180   1.00
C1       0.75000    0.75000    0.85520   1.00
C1       0.75000    0.85520    0.75000   1.00
C1       0.64480    0.75000    0.75000   1.00
C1       0.85520    0.75000    0.75000   1.00
C1       0.75000    0.64480    0.75000   1.00
C1       0.75000    0.75000    0.64480   1.00
O1       0.25000    0.25000    0.75000   1.00
Zn1      0.21720    0.28280    0.78280   1.00
Zn1      0.28280    0.21720    0.78280   1.00
Zn1      0.28280    0.28280    0.71720   1.00
Zn1      0.21720    0.21720    0.71720   1.00
O2       0.22650    0.27350    0.83820   1.00
O2       0.22650    0.33820    0.77350   1.00
O2       0.16180    0.27350    0.77350   1.00
O2       0.27350    0.22650    0.83820   1.00
O2       0.33820    0.22650    0.77350   1.00
O2       0.27350    0.16180    0.77350   1.00
O2       0.27350    0.33820    0.72650   1.00
O2       0.33820    0.27350    0.72650   1.00
O2       0.27350    0.27350    0.66180   1.00
O2       0.16180    0.22650    0.72650   1.00
O2       0.22650    0.16180    0.72650   1.00
O2       0.22650    0.22650    0.66180   1.00
C1       0.25000    0.25000    0.85520   1.00
C1       0.25000    0.35520    0.75000   1.00
C1       0.14480    0.25000    0.75000   1.00
C1       0.35520    0.25000    0.75000   1.00
C1       0.25000    0.14480    0.75000   1.00
C1       0.25000    0.25000    0.64480   1.00
O1       0.25000    0.75000    0.25000   1.00
Zn1      0.21720    0.78280    0.28280   1.00
Zn1      0.28280    0.71720    0.28280   1.00
Zn1      0.28280    0.78280    0.21720   1.00
Zn1      0.21720    0.71720    0.21720   1.00
O2       0.22650    0.77350    0.33820   1.00
O2       0.22650    0.83820    0.27350   1.00
O2       0.16180    0.77350    0.27350   1.00
O2       0.27350    0.72650    0.33820   1.00
O2       0.33820    0.72650    0.27350   1.00
O2       0.27350    0.66180    0.27350   1.00
O2       0.27350    0.83820    0.22650   1.00
O2       0.33820    0.77350    0.22650   1.00
O2       0.27350    0.77350    0.16180   1.00
O2       0.16180    0.72650    0.22650   1.00
O2       0.22650    0.66180    0.22650   1.00
O2       0.22650    0.72650    0.16180   1.00
C1       0.25000    0.75000    0.35520   1.00
C1       0.25000    0.85520    0.25000   1.00
C1       0.14480    0.75000    0.25000   1.00
C1       0.35520    0.75000    0.25000   1.00
C1       0.25000    0.64480    0.25000   1.00
C1       0.25000    0.75000    0.14480   1.00
O1       0.75000    0.25000    0.25000   1.00
Zn1      0.71720    0.28280    0.28280   1.00
Zn1      0.78280    0.21720    0.28280   1.00
Zn1      0.78280    0.28280    0.21720   1.00
Zn1      0.71720    0.21720    0.21720   1.00
O2       0.72650    0.27350    0.33820   1.00
O2       0.72650    0.33820    0.27350   1.00
O2       0.66180    0.27350    0.27350   1.00
O2       0.77350    0.22650    0.33820   1.00
O2       0.83820    0.22650    0.27350   1.00
O2       0.77350    0.16180    0.27350   1.00
O2       0.77350    0.33820    0.22650   1.00
O2       0.83820    0.27350    0.22650   1.00
O2       0.77350    0.27350    0.16180   1.00
O2       0.66180    0.22650    0.22650   1.00
O2       0.72650    0.16180    0.22650   1.00
O2       0.72650    0.22650    0.16180   1.00
C1       0.75000    0.25000    0.35520   1.00
C1       0.75000    0.35520    0.25000   1.00
C1       0.64480    0.25000    0.25000   1.00
C1       0.85520    0.25000    0.25000   1.00
C1       0.75000    0.14480    0.25000   1.00
C1       0.75000    0.25000    0.14480   1.00
O1       0.25000    0.25000    0.25000   1.00
Zn1      0.28280    0.21720    0.21720   1.00
Zn1      0.21720    0.28280    0.21720   1.00
Zn1      0.21720    0.21720    0.28280   1.00
Zn1      0.28280    0.28280    0.28280   1.00
O2       0.27350    0.22650    0.16180   1.00
O2       0.27350    0.16180    0.22650   1.00
O2       0.33820    0.22650    0.22650   1.00
O2       0.22650    0.27350    0.16180   1.00
O2       0.16180    0.27350    0.22650   1.00
O2       0.22650    0.33820    0.22650   1.00
O2       0.22650    0.16180    0.27350   1.00
O2       0.16180    0.22650    0.27350   1.00
O2       0.22650    0.22650    0.33820   1.00
O2       0.33820    0.27350    0.27350   1.00
O2       0.27350    0.33820    0.27350   1.00
O2       0.27350    0.27350    0.33820   1.00
C1       0.25000    0.25000    0.14480   1.00
C1       0.25000    0.14480    0.25000   1.00
C1       0.35520    0.25000    0.25000   1.00
C1       0.14480    0.25000    0.25000   1.00
C1       0.25000    0.35520    0.25000   1.00
C1       0.25000    0.25000    0.35520   1.00
O1       0.75000    0.75000    0.25000   1.00
Zn1      0.78280    0.71720    0.21720   1.00
Zn1      0.71720    0.78280    0.21720   1.00
Zn1      0.71720    0.71720    0.28280   1.00
Zn1      0.78280    0.78280    0.28280   1.00
O2       0.77350    0.72650    0.16180   1.00
O2       0.77350    0.66180    0.22650   1.00
O2       0.83820    0.72650    0.22650   1.00
O2       0.72650    0.77350    0.16180   1.00
O2       0.66180    0.77350    0.22650   1.00
O2       0.72650    0.83820    0.22650   1.00
O2       0.72650    0.66180    0.27350   1.00
O2       0.66180    0.72650    0.27350   1.00
O2       0.72650    0.72650    0.33820   1.00
O2       0.83820    0.77350    0.27350   1.00
O2       0.77350    0.83820    0.27350   1.00
O2       0.77350    0.77350    0.33820   1.00
C1       0.75000    0.75000    0.14480   1.00
C1       0.75000    0.64480    0.25000   1.00
C1       0.85520    0.75000    0.25000   1.00
C1       0.64480    0.75000    0.25000   1.00
C1       0.75000    0.85520    0.25000   1.00
C1       0.75000    0.75000    0.35520   1.00
O1       0.75000    0.25000    0.75000   1.00
Zn1      0.78280    0.21720    0.71720   1.00
Zn1      0.71720    0.28280    0.71720   1.00
Zn1      0.71720    0.21720    0.78280   1.00
Zn1      0.78280    0.28280    0.78280   1.00
O2       0.77350    0.22650    0.66180   1.00
O2       0.77350    0.16180    0.72650   1.00
O2       0.83820    0.22650    0.72650   1.00
O2       0.72650    0.27350    0.66180   1.00
O2       0.66180    0.27350    0.72650   1.00
O2       0.72650    0.33820    0.72650   1.00
O2       0.72650    0.16180    0.77350   1.00
O2       0.66180    0.22650    0.77350   1.00
O2       0.72650    0.22650    0.83820   1.00
O2       0.83820    0.27350    0.77350   1.00
O2       0.77350    0.33820    0.77350   1.00
O2       0.77350    0.27350    0.83820   1.00
C1       0.75000    0.25000    0.64480   1.00
C1       0.75000    0.14480    0.75000   1.00
C1       0.85520    0.25000    0.75000   1.00
C1       0.64480    0.25000    0.75000   1.00
C1       0.75000    0.35520    0.75000   1.00
C1       0.75000    0.25000    0.85520   1.00
O1       0.25000    0.75000    0.75000   1.00
Zn1      0.28280    0.71720    0.71720   1.00
Zn1      0.21720    0.78280    0.71720   1.00
Zn1      0.21720    0.71720    0.78280   1.00
Zn1      0.28280    0.78280    0.78280   1.00
O2       0.27350    0.72650    0.66180   1.00
O2       0.27350    0.66180    0.72650   1.00
O2       0.33820    0.72650    0.72650   1.00
O2       0.22650    0.77350    0.66180   1.00
O2       0.16180    0.77350    0.72650   1.00
O2       0.22650    0.83820    0.72650   1.00
O2       0.22650    0.66180    0.77350   1.00
O2       0.16180    0.72650    0.77350   1.00
O2       0.22650    0.72650    0.83820   1.00
O2       0.33820    0.77350    0.77350   1.00
O2       0.27350    0.83820    0.77350   1.00
O2       0.27350    0.77350    0.83820   1.00
C1       0.25000    0.75000    0.64480   1.00
C1       0.25000    0.64480    0.75000   1.00
C1       0.35520    0.75000    0.75000   1.00
C1       0.14480    0.75000    0.75000   1.00
C1       0.25000    0.85520    0.75000   1.00
C1       0.25000    0.75000    0.85520   1.00
C2       0.74928    0.75290    0.89757   1.00
C3a      0.75898    0.78644    0.91884   1.00
H1       0.76624    0.81325    0.90369   1.00
C3a      0.73987    0.71820    0.91704   1.00
H1       0.73238    0.69229    0.90051   1.00
C3b      0.75937    0.78567    0.95938   1.00
C5       0.76993    0.82226    0.98144   1.00
H2       0.79602    0.81697    0.99984   1.00
H2       0.77655    0.84700    0.96161   1.00
H2       0.74539    0.83113    1.00060   1.00
C3b      0.74005    0.71668    0.95756   1.00
C5       0.72979    0.67890    0.97767   1.00
H2       0.70396    0.68313    0.99670   1.00
H2       0.72288    0.65532    0.95655   1.00
H2       0.75458    0.66897    0.99594   1.00
C4       0.74985    0.75060    0.97873   1.00
C4       0.75015    0.74940    1.02127   1.00
C3b      0.78480    0.73918    1.04101   1.00
C5       0.82185    0.72937    1.01937   1.00
H2       0.83112    0.75456    1.00129   1.00
H2       0.84616    0.72204    1.03949   1.00
H2       0.81695    0.70395    0.99995   1.00
C3b      0.71578    0.75847    1.04204   1.00
C5       0.67844    0.76947    1.02152   1.00
H2       0.66890    0.74534    1.00217   1.00
H2       0.65441    0.77565    1.04235   1.00
H2       0.68307    0.79595    1.00350   1.00
C3a      0.78471    0.73813    1.08155   1.00
H1       0.81119    0.73031    1.09700   1.00
C3a      0.71645    0.75722    1.08257   1.00
H1       0.69019    0.76414    1.09881   1.00
C2       0.75072    0.74710    1.10243   1.00
C2       0.75290    0.89757    0.74928   1.00
C3a      0.78644    0.91884    0.75898   1.00
H1       0.81325    0.90369    0.76624   1.00
C3a      0.71820    0.91704    0.73987   1.00
H1       0.69229    0.90051    0.73238   1.00
C3b      0.78567    0.95938    0.75937   1.00
C5       0.82226    0.98144    0.76993   1.00
H2       0.81697    0.99984    0.79602   1.00
H2       0.84700    0.96161    0.77655   1.00
H2       0.83113    1.00060    0.74539   1.00
C3b      0.71668    0.95756    0.74005   1.00
C5       0.67890    0.97767    0.72979   1.00
H2       0.68313    0.99670    0.70396   1.00
H2       0.65532    0.95655    0.72288   1.00
H2       0.66897    0.99594    0.75458   1.00
C4       0.75060    0.97873    0.74985   1.00
C4       0.74940    1.02127    0.75015   1.00
C3b      0.73918    1.04101    0.78480   1.00
C5       0.72937    1.01937    0.82185   1.00
H2       0.75456    1.00129    0.83112   1.00
H2       0.72204    1.03949    0.84616   1.00
H2       0.70395    0.99995    0.81695   1.00
C3b      0.75847    1.04204    0.71578   1.00
C5       0.76947    1.02152    0.67844   1.00
H2       0.74534    1.00217    0.66890   1.00
H2       0.77565    1.04235    0.65441   1.00
H2       0.79595    1.00350    0.68307   1.00
C3a      0.73813    1.08155    0.78471   1.00
H1       0.73031    1.09700    0.81119   1.00
C3a      0.75722    1.08257    0.71645   1.00
H1       0.76414    1.09881    0.69019   1.00
C2       0.74710    1.10243    0.75072   1.00
C2       0.60243    0.74928    0.74710   1.00
C3a      0.58116    0.75898    0.71356   1.00
H1       0.59631    0.76624    0.68675   1.00
C3a      0.58296    0.73987    0.78180   1.00
H1       0.59949    0.73238    0.80771   1.00
C3b      0.54062    0.75937    0.71433   1.00
C5       0.51856    0.76993    0.67774   1.00
H2       0.50016    0.79602    0.68303   1.00
H2       0.53839    0.77655    0.65300   1.00
H2       0.49940    0.74539    0.66887   1.00
C3b      0.54244    0.74005    0.78332   1.00
C5       0.52233    0.72979    0.82110   1.00
H2       0.50330    0.70396    0.81687   1.00
H2       0.54345    0.72288    0.84468   1.00
H2       0.50406    0.75458    0.83103   1.00
C4       0.52127    0.74985    0.74940   1.00
C4       0.47873    0.75015    0.75060   1.00
C3b      0.45899    0.78480    0.76082   1.00
C5       0.48063    0.82185    0.77063   1.00
H2       0.49871    0.83112    0.74544   1.00
H2       0.46051    0.84616    0.77796   1.00
H2       0.50005    0.81695    0.79605   1.00
C3b      0.45796    0.71578    0.74153   1.00
C5       0.47848    0.67844    0.73053   1.00
H2       0.49783    0.66890    0.75466   1.00
H2       0.45765    0.65441    0.72435   1.00
H2       0.49650    0.68307    0.70405   1.00
C3a      0.41845    0.78471    0.76187   1.00
H1       0.40300    0.81119    0.76969   1.00
C3a      0.41743    0.71645    0.74278   1.00
H1       0.40119    0.69019    0.73586   1.00
C2       0.39757    0.75072    0.75290   1.00
C2       0.89757    0.74928    0.75290   1.00
C3a      0.91884    0.75898    0.78644   1.00
H1       0.90369    0.76624    0.81325   1.00
C3a      0.91704    0.73987    0.71820   1.00
H1       0.90051    0.73238    0.69229   1.00
C3b      0.95938    0.75937    0.78567   1.00
C5       0.98144    0.76993    0.82226   1.00
H2       0.99984    0.79602    0.81697   1.00
H2       0.96161    0.77655    0.84700   1.00
H2       1.00060    0.74539    0.83113   1.00
C3b      0.95756    0.74005    0.71668   1.00
C5       0.97767    0.72979    0.67890   1.00
H2       0.99670    0.70396    0.68313   1.00
H2       0.95655    0.72288    0.65532   1.00
H2       0.99594    0.75458    0.66897   1.00
C4       0.97873    0.74985    0.75060   1.00
C4       1.02127    0.75015    0.74940   1.00
C3b      1.04101    0.78480    0.73918   1.00
C5       1.01937    0.82185    0.72937   1.00
H2       1.00129    0.83112    0.75456   1.00
H2       1.03949    0.84616    0.72204   1.00
H2       0.99995    0.81695    0.70395   1.00
C3b      1.04204    0.71578    0.75847   1.00
C5       1.02152    0.67844    0.76947   1.00
H2       1.00217    0.66890    0.74534   1.00
H2       1.04235    0.65441    0.77565   1.00
H2       1.00350    0.68307    0.79595   1.00
C3a      1.08155    0.78471    0.73813   1.00
H1       1.09700    0.81119    0.73031   1.00
C3a      1.08257    0.71645    0.75722   1.00
H1       1.09881    0.69019    0.76414   1.00
C2       1.10243    0.75072    0.74710   1.00
C2       0.74710    0.60243    0.74928   1.00
C3a      0.71356    0.58116    0.75898   1.00
H1       0.68675    0.59631    0.76624   1.00
C3a      0.78180    0.58296    0.73987   1.00
H1       0.80771    0.59949    0.73238   1.00
C3b      0.71433    0.54062    0.75937   1.00
C5       0.67774    0.51856    0.76993   1.00
H2       0.68303    0.50016    0.79602   1.00
H2       0.65300    0.53839    0.77655   1.00
H2       0.66887    0.49940    0.74539   1.00
C3b      0.78332    0.54244    0.74005   1.00
C5       0.82110    0.52233    0.72979   1.00
H2       0.81687    0.50330    0.70396   1.00
H2       0.84468    0.54345    0.72288   1.00
H2       0.83103    0.50406    0.75458   1.00
C4       0.74940    0.52127    0.74985   1.00
C4       0.75060    0.47873    0.75015   1.00
C3b      0.76082    0.45899    0.78480   1.00
C5       0.77063    0.48063    0.82185   1.00
H2       0.74544    0.49871    0.83112   1.00
H2       0.77796    0.46051    0.84616   1.00
H2       0.79605    0.50005    0.81695   1.00
C3b      0.74153    0.45796    0.71578   1.00
C5       0.73053    0.47848    0.67844   1.00
H2       0.75466    0.49783    0.66890   1.00
H2       0.72435    0.45765    0.65441   1.00
H2       0.70405    0.49650    0.68307   1.00
C3a      0.76187    0.41845    0.78471   1.00
H1       0.76969    0.40300    0.81119   1.00
C3a      0.74278    0.41743    0.71645   1.00
H1       0.73586    0.40119    0.69019   1.00
C2       0.75290    0.39757    0.75072   1.00
C2       0.74928    0.74710    0.60243   1.00
C3a      0.75898    0.71356    0.58116   1.00
H1       0.76624    0.68675    0.59631   1.00
C3a      0.73987    0.78180    0.58296   1.00
H1       0.73238    0.80771    0.59949   1.00
C3b      0.75937    0.71433    0.54062   1.00
C5       0.76993    0.67774    0.51856   1.00
H2       0.79602    0.68303    0.50016   1.00
H2       0.77655    0.65300    0.53839   1.00
H2       0.74539    0.66887    0.49940   1.00
C3b      0.74005    0.78332    0.54244   1.00
C5       0.72979    0.82110    0.52233   1.00
H2       0.70396    0.81687    0.50330   1.00
H2       0.72288    0.84468    0.54345   1.00
H2       0.75458    0.83103    0.50406   1.00
C4       0.74985    0.74940    0.52127   1.00
C4       0.75015    0.75060    0.47873   1.00
C3b      0.78480    0.76082    0.45899   1.00
C5       0.82185    0.77063    0.48063   1.00
H2       0.83112    0.74544    0.49871   1.00
H2       0.84616    0.77796    0.46051   1.00
H2       0.81695    0.79605    0.50005   1.00
C3b      0.71578    0.74153    0.45796   1.00
C5       0.67844    0.73053    0.47848   1.00
H2       0.66890    0.75466    0.49783   1.00
H2       0.65441    0.72435    0.45765   1.00
H2       0.68307    0.70405    0.49650   1.00
C3a      0.78471    0.76187    0.41845   1.00
H1       0.81119    0.76969    0.40300   1.00
C3a      0.71645    0.74278    0.41743   1.00
H1       0.69019    0.73586    0.40119   1.00
C2       0.75072    0.75290    0.39757   1.00
C2       0.24928    0.25290    0.89757   1.00
C3a      0.25898    0.28644    0.91884   1.00
H1       0.26624    0.31325    0.90369   1.00
C3a      0.23987    0.21820    0.91704   1.00
H1       0.23238    0.19229    0.90051   1.00
C3b      0.25937    0.28567    0.95938   1.00
C5       0.26993    0.32226    0.98144   1.00
H2       0.29602    0.31697    0.99984   1.00
H2       0.27655    0.34700    0.96161   1.00
H2       0.24539    0.33113    1.00060   1.00
C3b      0.24005    0.21668    0.95756   1.00
C5       0.22979    0.17890    0.97767   1.00
H2       0.20396    0.18313    0.99670   1.00
H2       0.22288    0.15532    0.95655   1.00
H2       0.25458    0.16897    0.99594   1.00
C4       0.24985    0.25060    0.97873   1.00
C4       0.25015    0.24940    1.02127   1.00
C3b      0.28480    0.23918    1.04101   1.00
C5       0.32185    0.22937    1.01937   1.00
H2       0.33112    0.25456    1.00129   1.00
H2       0.34616    0.22204    1.03949   1.00
H2       0.31695    0.20395    0.99995   1.00
C3b      0.21578    0.25847    1.04204   1.00
C5       0.17844    0.26947    1.02152   1.00
H2       0.16890    0.24534    1.00217   1.00
H2       0.15441    0.27565    1.04235   1.00
H2       0.18307    0.29595    1.00350   1.00
C3a      0.28471    0.23813    1.08155   1.00
H1       0.31119    0.23031    1.09700   1.00
C3a      0.21645    0.25722    1.08257   1.00
H1       0.19019    0.26414    1.09881   1.00
C2       0.25072    0.24710    1.10243   1.00
C2       0.25290    0.39757    0.74928   1.00
C3a      0.28644    0.41884    0.75898   1.00
H1       0.31325    0.40369    0.76624   1.00
C3a      0.21820    0.41704    0.73987   1.00
H1       0.19229    0.40051    0.73238   1.00
C3b      0.28567    0.45938    0.75937   1.00
C5       0.32226    0.48144    0.76993   1.00
H2       0.31697    0.49984    0.79602   1.00
H2       0.34700    0.46161    0.77655   1.00
H2       0.33113    0.50060    0.74539   1.00
C3b      0.21668    0.45756    0.74005   1.00
C5       0.17890    0.47767    0.72979   1.00
H2       0.18313    0.49670    0.70396   1.00
H2       0.15532    0.45655    0.72288   1.00
H2       0.16897    0.49594    0.75458   1.00
C4       0.25060    0.47873    0.74985   1.00
C4       0.24940    0.52127    0.75015   1.00
C3b      0.23918    0.54101    0.78480   1.00
C5       0.22937    0.51937    0.82185   1.00
H2       0.25456    0.50129    0.83112   1.00
H2       0.22204    0.53949    0.84616   1.00
H2       0.20395    0.49995    0.81695   1.00
C3b      0.25847    0.54204    0.71578   1.00
C5       0.26947    0.52152    0.67844   1.00
H2       0.24534    0.50217    0.66890   1.00
H2       0.27565    0.54235    0.65441   1.00
H2       0.29595    0.50350    0.68307   1.00
C3a      0.23813    0.58155    0.78471   1.00
H1       0.23031    0.59700    0.81119   1.00
C3a      0.25722    0.58257    0.71645   1.00
H1       0.26414    0.59881    0.69019   1.00
C2       0.24710    0.60243    0.75072   1.00
C2       0.10243    0.24928    0.74710   1.00
C3a      0.08116    0.25898    0.71356   1.00
H1       0.09631    0.26624    0.68675   1.00
C3a      0.08296    0.23987    0.78180   1.00
H1       0.09949    0.23238    0.80771   1.00
C3b      0.04062    0.25937    0.71433   1.00
C5       0.01856    0.26993    0.67774   1.00
H2       0.00016    0.29602    0.68303   1.00
H2       0.03839    0.27655    0.65300   1.00
H2       -0.00060   0.24539    0.66887   1.00
C3b      0.04244    0.24005    0.78332   1.00
C5       0.02233    0.22979    0.82110   1.00
H2       0.00330    0.20396    0.81687   1.00
H2       0.04345    0.22288    0.84468   1.00
H2       0.00406    0.25458    0.83103   1.00
C4       0.02127    0.24985    0.74940   1.00
C4       -0.02127   0.25015    0.75060   1.00
C3b      -0.04101   0.28480    0.76082   1.00
C5       -0.01937   0.32185    0.77063   1.00
H2       -0.00129   0.33112    0.74544   1.00
H2       -0.03949   0.34616    0.77796   1.00
H2       0.00005    0.31695    0.79605   1.00
C3b      -0.04204   0.21578    0.74153   1.00
C5       -0.02152   0.17844    0.73053   1.00
H2       -0.00217   0.16890    0.75466   1.00
H2       -0.04235   0.15441    0.72435   1.00
H2       -0.00350   0.18307    0.70405   1.00
C3a      -0.08155   0.28471    0.76187   1.00
H1       -0.09700   0.31119    0.76969   1.00
C3a      -0.08257   0.21645    0.74278   1.00
H1       -0.09881   0.19019    0.73586   1.00
C2       -0.10243   0.25072    0.75290   1.00
C2       0.39757    0.24928    0.75290   1.00
C3a      0.41884    0.25898    0.78644   1.00
H1       0.40369    0.26624    0.81325   1.00
C3a      0.41704    0.23987    0.71820   1.00
H1       0.40051    0.23238    0.69229   1.00
C3b      0.45938    0.25937    0.78567   1.00
C5       0.48144    0.26993    0.82226   1.00
H2       0.49984    0.29602    0.81697   1.00
H2       0.46161    0.27655    0.84700   1.00
H2       0.50060    0.24539    0.83113   1.00
C3b      0.45756    0.24005    0.71668   1.00
C5       0.47767    0.22979    0.67890   1.00
H2       0.49670    0.20396    0.68313   1.00
H2       0.45655    0.22288    0.65532   1.00
H2       0.49594    0.25458    0.66897   1.00
C4       0.47873    0.24985    0.75060   1.00
C4       0.52127    0.25015    0.74940   1.00
C3b      0.54101    0.28480    0.73918   1.00
C5       0.51937    0.32185    0.72937   1.00
H2       0.50129    0.33112    0.75456   1.00
H2       0.53949    0.34616    0.72204   1.00
H2       0.49995    0.31695    0.70395   1.00
C3b      0.54204    0.21578    0.75847   1.00
C5       0.52152    0.17844    0.76947   1.00
H2       0.50217    0.16890    0.74534   1.00
H2       0.54235    0.15441    0.77565   1.00
H2       0.50350    0.18307    0.79595   1.00
C3a      0.58155    0.28471    0.73813   1.00
H1       0.59700    0.31119    0.73031   1.00
C3a      0.58257    0.21645    0.75722   1.00
H1       0.59881    0.19019    0.76414   1.00
C2       0.60243    0.25072    0.74710   1.00
C2       0.24710    0.10243    0.74928   1.00
C3a      0.21356    0.08116    0.75898   1.00
H1       0.18675    0.09631    0.76624   1.00
C3a      0.28180    0.08296    0.73987   1.00
H1       0.30771    0.09949    0.73238   1.00
C3b      0.21433    0.04062    0.75937   1.00
C5       0.17774    0.01856    0.76993   1.00
H2       0.18303    0.00016    0.79602   1.00
H2       0.15300    0.03839    0.77655   1.00
H2       0.16887    -0.00060   0.74539   1.00
C3b      0.28332    0.04244    0.74005   1.00
C5       0.32110    0.02233    0.72979   1.00
H2       0.31687    0.00330    0.70396   1.00
H2       0.34468    0.04345    0.72288   1.00
H2       0.33103    0.00406    0.75458   1.00
C4       0.24940    0.02127    0.74985   1.00
C4       0.25060    -0.02127   0.75015   1.00
C3b      0.26082    -0.04101   0.78480   1.00
C5       0.27063    -0.01937   0.82185   1.00
H2       0.24544    -0.00129   0.83112   1.00
H2       0.27796    -0.03949   0.84616   1.00
H2       0.29605    0.00005    0.81695   1.00
C3b      0.24153    -0.04204   0.71578   1.00
C5       0.23053    -0.02152   0.67844   1.00
H2       0.25466    -0.00217   0.66890   1.00
H2       0.22435    -0.04235   0.65441   1.00
H2       0.20405    -0.00350   0.68307   1.00
C3a      0.26187    -0.08155   0.78471   1.00
H1       0.26969    -0.09700   0.81119   1.00
C3a      0.24278    -0.08257   0.71645   1.00
H1       0.23586    -0.09881   0.69019   1.00
C2       0.25290    -0.10243   0.75072   1.00
C2       0.24928    0.24710    0.60243   1.00
C3a      0.25898    0.21356    0.58116   1.00
H1       0.26624    0.18675    0.59631   1.00
C3a      0.23987    0.28180    0.58296   1.00
H1       0.23238    0.30771    0.59949   1.00
C3b      0.25937    0.21433    0.54062   1.00
C5       0.26993    0.17774    0.51856   1.00
H2       0.29602    0.18303    0.50016   1.00
H2       0.27655    0.15300    0.53839   1.00
H2       0.24539    0.16887    0.49940   1.00
C3b      0.24005    0.28332    0.54244   1.00
C5       0.22979    0.32110    0.52233   1.00
H2       0.20396    0.31687    0.50330   1.00
H2       0.22288    0.34468    0.54345   1.00
H2       0.25458    0.33103    0.50406   1.00
C4       0.24985    0.24940    0.52127   1.00
C4       0.25015    0.25060    0.47873   1.00
C3b      0.28480    0.26082    0.45899   1.00
C5       0.32185    0.27063    0.48063   1.00
H2       0.33112    0.24544    0.49871   1.00
H2       0.34616    0.27796    0.46051   1.00
H2       0.31695    0.29605    0.50005   1.00
C3b      0.21578    0.24153    0.45796   1.00
C5       0.17844    0.23053    0.47848   1.00
H2       0.16890    0.25466    0.49783   1.00
H2       0.15441    0.22435    0.45765   1.00
H2       0.18307    0.20405    0.49650   1.00
C3a      0.28471    0.26187    0.41845   1.00
H1       0.31119    0.26969    0.40300   1.00
C3a      0.21645    0.24278    0.41743   1.00
H1       0.19019    0.23586    0.40119   1.00
C2       0.25072    0.25290    0.39757   1.00
C2       0.24928    0.75290    0.39757   1.00
C3a      0.25898    0.78644    0.41884   1.00
H1       0.26624    0.81325    0.40369   1.00
C3a      0.23987    0.71820    0.41704   1.00
H1       0.23238    0.69229    0.40051   1.00
C3b      0.25937    0.78567    0.45938   1.00
C5       0.26993    0.82226    0.48144   1.00
H2       0.29602    0.81697    0.49984   1.00
H2       0.27655    0.84700    0.46161   1.00
H2       0.24539    0.83113    0.50060   1.00
C3b      0.24005    0.71668    0.45756   1.00
C5       0.22979    0.67890    0.47767   1.00
H2       0.20396    0.68313    0.49670   1.00
H2       0.22288    0.65532    0.45655   1.00
H2       0.25458    0.66897    0.49594   1.00
C4       0.24985    0.75060    0.47873   1.00
C4       0.25015    0.74940    0.52127   1.00
C3b      0.28480    0.73918    0.54101   1.00
C5       0.32185    0.72937    0.51937   1.00
H2       0.33112    0.75456    0.50129   1.00
H2       0.34616    0.72204    0.53949   1.00
H2       0.31695    0.70395    0.49995   1.00
C3b      0.21578    0.75847    0.54204   1.00
C5       0.17844    0.76947    0.52152   1.00
H2       0.16890    0.74534    0.50217   1.00
H2       0.15441    0.77565    0.54235   1.00
H2       0.18307    0.79595    0.50350   1.00
C3a      0.28471    0.73813    0.58155   1.00
H1       0.31119    0.73031    0.59700   1.00
C3a      0.21645    0.75722    0.58257   1.00
H1       0.19019    0.76414    0.59881   1.00
C2       0.25072    0.74710    0.60243   1.00
C2       0.25290    0.89757    0.24928   1.00
C3a      0.28644    0.91884    0.25898   1.00
H1       0.31325    0.90369    0.26624   1.00
C3a      0.21820    0.91704    0.23987   1.00
H1       0.19229    0.90051    0.23238   1.00
C3b      0.28567    0.95938    0.25937   1.00
C5       0.32226    0.98144    0.26993   1.00
H2       0.31697    0.99984    0.29602   1.00
H2       0.34700    0.96161    0.27655   1.00
H2       0.33113    1.00060    0.24539   1.00
C3b      0.21668    0.95756    0.24005   1.00
C5       0.17890    0.97767    0.22979   1.00
H2       0.18313    0.99670    0.20396   1.00
H2       0.15532    0.95655    0.22288   1.00
H2       0.16897    0.99594    0.25458   1.00
C4       0.25060    0.97873    0.24985   1.00
C4       0.24940    1.02127    0.25015   1.00
C3b      0.23918    1.04101    0.28480   1.00
C5       0.22937    1.01937    0.32185   1.00
H2       0.25456    1.00129    0.33112   1.00
H2       0.22204    1.03949    0.34616   1.00
H2       0.20395    0.99995    0.31695   1.00
C3b      0.25847    1.04204    0.21578   1.00
C5       0.26947    1.02152    0.17844   1.00
H2       0.24534    1.00217    0.16890   1.00
H2       0.27565    1.04235    0.15441   1.00
H2       0.29595    1.00350    0.18307   1.00
C3a      0.23813    1.08155    0.28471   1.00
H1       0.23031    1.09700    0.31119   1.00
C3a      0.25722    1.08257    0.21645   1.00
H1       0.26414    1.09881    0.19019   1.00
C2       0.24710    1.10243    0.25072   1.00
C2       0.10243    0.74928    0.24710   1.00
C3a      0.08116    0.75898    0.21356   1.00
H1       0.09631    0.76624    0.18675   1.00
C3a      0.08296    0.73987    0.28180   1.00
H1       0.09949    0.73238    0.30771   1.00
C3b      0.04062    0.75937    0.21433   1.00
C5       0.01856    0.76993    0.17774   1.00
H2       0.00016    0.79602    0.18303   1.00
H2       0.03839    0.77655    0.15300   1.00
H2       -0.00060   0.74539    0.16887   1.00
C3b      0.04244    0.74005    0.28332   1.00
C5       0.02233    0.72979    0.32110   1.00
H2       0.00330    0.70396    0.31687   1.00
H2       0.04345    0.72288    0.34468   1.00
H2       0.00406    0.75458    0.33103   1.00
C4       0.02127    0.74985    0.24940   1.00
C4       -0.02127   0.75015    0.25060   1.00
C3b      -0.04101   0.78480    0.26082   1.00
C5       -0.01937   0.82185    0.27063   1.00
H2       -0.00129   0.83112    0.24544   1.00
H2       -0.03949   0.84616    0.27796   1.00
H2       0.00005    0.81695    0.29605   1.00
C3b      -0.04204   0.71578    0.24153   1.00
C5       -0.02152   0.67844    0.23053   1.00
H2       -0.00217   0.66890    0.25466   1.00
H2       -0.04235   0.65441    0.22435   1.00
H2       -0.00350   0.68307    0.20405   1.00
C3a      -0.08155   0.78471    0.26187   1.00
H1       -0.09700   0.81119    0.26969   1.00
C3a      -0.08257   0.71645    0.24278   1.00
H1       -0.09881   0.69019    0.23586   1.00
C2       -0.10243   0.75072    0.25290   1.00
C2       0.39757    0.74928    0.25290   1.00
C3a      0.41884    0.75898    0.28644   1.00
H1       0.40369    0.76624    0.31325   1.00
C3a      0.41704    0.73987    0.21820   1.00
H1       0.40051    0.73238    0.19229   1.00
C3b      0.45938    0.75937    0.28567   1.00
C5       0.48144    0.76993    0.32226   1.00
H2       0.49984    0.79602    0.31697   1.00
H2       0.46161    0.77655    0.34700   1.00
H2       0.50060    0.74539    0.33113   1.00
C3b      0.45756    0.74005    0.21668   1.00
C5       0.47767    0.72979    0.17890   1.00
H2       0.49670    0.70396    0.18313   1.00
H2       0.45655    0.72288    0.15532   1.00
H2       0.49594    0.75458    0.16897   1.00
C4       0.47873    0.74985    0.25060   1.00
C4       0.52127    0.75015    0.24940   1.00
C3b      0.54101    0.78480    0.23918   1.00
C5       0.51937    0.82185    0.22937   1.00
H2       0.50129    0.83112    0.25456   1.00
H2       0.53949    0.84616    0.22204   1.00
H2       0.49995    0.81695    0.20395   1.00
C3b      0.54204    0.71578    0.25847   1.00
C5       0.52152    0.67844    0.26947   1.00
H2       0.50217    0.66890    0.24534   1.00
H2       0.54235    0.65441    0.27565   1.00
H2       0.50350    0.68307    0.29595   1.00
C3a      0.58155    0.78471    0.23813   1.00
H1       0.59700    0.81119    0.23031   1.00
C3a      0.58257    0.71645    0.25722   1.00
H1       0.59881    0.69019    0.26414   1.00
C2       0.60243    0.75072    0.24710   1.00
C2       0.24710    0.60243    0.24928   1.00
C3a      0.21356    0.58116    0.25898   1.00
H1       0.18675    0.59631    0.26624   1.00
C3a      0.28180    0.58296    0.23987   1.00
H1       0.30771    0.59949    0.23238   1.00
C3b      0.21433    0.54062    0.25937   1.00
C5       0.17774    0.51856    0.26993   1.00
H2       0.18303    0.50016    0.29602   1.00
H2       0.15300    0.53839    0.27655   1.00
H2       0.16887    0.49940    0.24539   1.00
C3b      0.28332    0.54244    0.24005   1.00
C5       0.32110    0.52233    0.22979   1.00
H2       0.31687    0.50330    0.20396   1.00
H2       0.34468    0.54345    0.22288   1.00
H2       0.33103    0.50406    0.25458   1.00
C4       0.24940    0.52127    0.24985   1.00
C4       0.25060    0.47873    0.25015   1.00
C3b      0.26082    0.45899    0.28480   1.00
C5       0.27063    0.48063    0.32185   1.00
H2       0.24544    0.49871    0.33112   1.00
H2       0.27796    0.46051    0.34616   1.00
H2       0.29605    0.50005    0.31695   1.00
C3b      0.24153    0.45796    0.21578   1.00
C5       0.23053    0.47848    0.17844   1.00
H2       0.25466    0.49783    0.16890   1.00
H2       0.22435    0.45765    0.15441   1.00
H2       0.20405    0.49650    0.18307   1.00
C3a      0.26187    0.41845    0.28471   1.00
H1       0.26969    0.40300    0.31119   1.00
C3a      0.24278    0.41743    0.21645   1.00
H1       0.23586    0.40119    0.19019   1.00
C2       0.25290    0.39757    0.25072   1.00
C2       0.24928    0.74710    0.10243   1.00
C3a      0.25898    0.71356    0.08116   1.00
H1       0.26624    0.68675    0.09631   1.00
C3a      0.23987    0.78180    0.08296   1.00
H1       0.23238    0.80771    0.09949   1.00
C3b      0.25937    0.71433    0.04062   1.00
C5       0.26993    0.67774    0.01856   1.00
H2       0.29602    0.68303    0.00016   1.00
H2       0.27655    0.65300    0.03839   1.00
H2       0.24539    0.66887    -0.00060   1.00
C3b      0.24005    0.78332    0.04244   1.00
C5       0.22979    0.82110    0.02233   1.00
H2       0.20396    0.81687    0.00330   1.00
H2       0.22288    0.84468    0.04345   1.00
H2       0.25458    0.83103    0.00406   1.00
C4       0.24985    0.74940    0.02127   1.00
C4       0.25015    0.75060    -0.02127   1.00
C3b      0.28480    0.76082    -0.04101   1.00
C5       0.32185    0.77063    -0.01937   1.00
H2       0.33112    0.74544    -0.00129   1.00
H2       0.34616    0.77796    -0.03949   1.00
H2       0.31695    0.79605    0.00005   1.00
C3b      0.21578    0.74153    -0.04204   1.00
C5       0.17844    0.73053    -0.02152   1.00
H2       0.16890    0.75466    -0.00217   1.00
H2       0.15441    0.72435    -0.04235   1.00
H2       0.18307    0.70405    -0.00350   1.00
C3a      0.28471    0.76187    -0.08155   1.00
H1       0.31119    0.76969    -0.09700   1.00
C3a      0.21645    0.74278    -0.08257   1.00
H1       0.19019    0.73586    -0.09881   1.00
C2       0.25072    0.75290    -0.10243   1.00
C2       0.74928    0.25290    0.39757   1.00
C3a      0.75898    0.28644    0.41884   1.00
H1       0.76624    0.31325    0.40369   1.00
C3a      0.73987    0.21820    0.41704   1.00
H1       0.73238    0.19229    0.40051   1.00
C3b      0.75937    0.28567    0.45938   1.00
C5       0.76993    0.32226    0.48144   1.00
H2       0.79602    0.31697    0.49984   1.00
H2       0.77655    0.34700    0.46161   1.00
H2       0.74539    0.33113    0.50060   1.00
C3b      0.74005    0.21668    0.45756   1.00
C5       0.72979    0.17890    0.47767   1.00
H2       0.70396    0.18313    0.49670   1.00
H2       0.72288    0.15532    0.45655   1.00
H2       0.75458    0.16897    0.49594   1.00
C4       0.74985    0.25060    0.47873   1.00
C4       0.75015    0.24940    0.52127   1.00
C3b      0.78480    0.23918    0.54101   1.00
C5       0.82185    0.22937    0.51937   1.00
H2       0.83112    0.25456    0.50129   1.00
H2       0.84616    0.22204    0.53949   1.00
H2       0.81695    0.20395    0.49995   1.00
C3b      0.71578    0.25847    0.54204   1.00
C5       0.67844    0.26947    0.52152   1.00
H2       0.66890    0.24534    0.50217   1.00
H2       0.65441    0.27565    0.54235   1.00
H2       0.68307    0.29595    0.50350   1.00
C3a      0.78471    0.23813    0.58155   1.00
H1       0.81119    0.23031    0.59700   1.00
C3a      0.71645    0.25722    0.58257   1.00
H1       0.69019    0.26414    0.59881   1.00
C2       0.75072    0.24710    0.60243   1.00
C2       0.75290    0.39757    0.24928   1.00
C3a      0.78644    0.41884    0.25898   1.00
H1       0.81325    0.40369    0.26624   1.00
C3a      0.71820    0.41704    0.23987   1.00
H1       0.69229    0.40051    0.23238   1.00
C3b      0.78567    0.45938    0.25937   1.00
C5       0.82226    0.48144    0.26993   1.00
H2       0.81697    0.49984    0.29602   1.00
H2       0.84700    0.46161    0.27655   1.00
H2       0.83113    0.50060    0.24539   1.00
C3b      0.71668    0.45756    0.24005   1.00
C5       0.67890    0.47767    0.22979   1.00
H2       0.68313    0.49670    0.20396   1.00
H2       0.65532    0.45655    0.22288   1.00
H2       0.66897    0.49594    0.25458   1.00
C4       0.75060    0.47873    0.24985   1.00
C4       0.74940    0.52127    0.25015   1.00
C3b      0.73918    0.54101    0.28480   1.00
C5       0.72937    0.51937    0.32185   1.00
H2       0.75456    0.50129    0.33112   1.00
H2       0.72204    0.53949    0.34616   1.00
H2       0.70395    0.49995    0.31695   1.00
C3b      0.75847    0.54204    0.21578   1.00
C5       0.76947    0.52152    0.17844   1.00
H2       0.74534    0.50217    0.16890   1.00
H2       0.77565    0.54235    0.15441   1.00
H2       0.79595    0.50350    0.18307   1.00
C3a      0.73813    0.58155    0.28471   1.00
H1       0.73031    0.59700    0.31119   1.00
C3a      0.75722    0.58257    0.21645   1.00
H1       0.76414    0.59881    0.19019   1.00
C2       0.74710    0.60243    0.25072   1.00
C2       0.60243    0.24928    0.24710   1.00
C3a      0.58116    0.25898    0.21356   1.00
H1       0.59631    0.26624    0.18675   1.00
C3a      0.58296    0.23987    0.28180   1.00
H1       0.59949    0.23238    0.30771   1.00
C3b      0.54062    0.25937    0.21433   1.00
C5       0.51856    0.26993    0.17774   1.00
H2       0.50016    0.29602    0.18303   1.00
H2       0.53839    0.27655    0.15300   1.00
H2       0.49940    0.24539    0.16887   1.00
C3b      0.54244    0.24005    0.28332   1.00
C5       0.52233    0.22979    0.32110   1.00
H2       0.50330    0.20396    0.31687   1.00
H2       0.54345    0.22288    0.34468   1.00
H2       0.50406    0.25458    0.33103   1.00
C4       0.52127    0.24985    0.24940   1.00
C4       0.47873    0.25015    0.25060   1.00
C3b      0.45899    0.28480    0.26082   1.00
C5       0.48063    0.32185    0.27063   1.00
H2       0.49871    0.33112    0.24544   1.00
H2       0.46051    0.34616    0.27796   1.00
H2       0.50005    0.31695    0.29605   1.00
C3b      0.45796    0.21578    0.24153   1.00
C5       0.47848    0.17844    0.23053   1.00
H2       0.49783    0.16890    0.25466   1.00
H2       0.45765    0.15441    0.22435   1.00
H2       0.49650    0.18307    0.20405   1.00
C3a      0.41845    0.28471    0.26187   1.00
H1       0.40300    0.31119    0.26969   1.00
C3a      0.41743    0.21645    0.24278   1.00
H1       0.40119    0.19019    0.23586   1.00
C2       0.39757    0.25072    0.25290   1.00
C2       0.89757    0.24928    0.25290   1.00
C3a      0.91884    0.25898    0.28644   1.00
H1       0.90369    0.26624    0.31325   1.00
C3a      0.91704    0.23987    0.21820   1.00
H1       0.90051    0.23238    0.19229   1.00
C3b      0.95938    0.25937    0.28567   1.00
C5       0.98144    0.26993    0.32226   1.00
H2       0.99984    0.29602    0.31697   1.00
H2       0.96161    0.27655    0.34700   1.00
H2       1.00060    0.24539    0.33113   1.00
C3b      0.95756    0.24005    0.21668   1.00
C5       0.97767    0.22979    0.17890   1.00
H2       0.99670    0.20396    0.18313   1.00
H2       0.95655    0.22288    0.15532   1.00
H2       0.99594    0.25458    0.16897   1.00
C4       0.97873    0.24985    0.25060   1.00
C4       1.02127    0.25015    0.24940   1.00
C3b      1.04101    0.28480    0.23918   1.00
C5       1.01937    0.32185    0.22937   1.00
H2       1.00129    0.33112    0.25456   1.00
H2       1.03949    0.34616    0.22204   1.00
H2       0.99995    0.31695    0.20395   1.00
C3b      1.04204    0.21578    0.25847   1.00
C5       1.02152    0.17844    0.26947   1.00
H2       1.00217    0.16890    0.24534   1.00
H2       1.04235    0.15441    0.27565   1.00
H2       1.00350    0.18307    0.29595   1.00
C3a      1.08155    0.28471    0.23813   1.00
H1       1.09700    0.31119    0.23031   1.00
C3a      1.08257    0.21645    0.25722   1.00
H1       1.09881    0.19019    0.26414   1.00
C2       1.10243    0.25072    0.24710   1.00
C2       0.74710    0.10243    0.24928   1.00
C3a      0.71356    0.08116    0.25898   1.00
H1       0.68675    0.09631    0.26624   1.00
C3a      0.78180    0.08296    0.23987   1.00
H1       0.80771    0.09949    0.23238   1.00
C3b      0.71433    0.04062    0.25937   1.00
C5       0.67774    0.01856    0.26993   1.00
H2       0.68303    0.00016    0.29602   1.00
H2       0.65300    0.03839    0.27655   1.00
H2       0.66887    -0.00060   0.24539   1.00
C3b      0.78332    0.04244    0.24005   1.00
C5       0.82110    0.02233    0.22979   1.00
H2       0.81687    0.00330    0.20396   1.00
H2       0.84468    0.04345    0.22288   1.00
H2       0.83103    0.00406    0.25458   1.00
C4       0.74940    0.02127    0.24985   1.00
C4       0.75060    -0.02127   0.25015   1.00
C3b      0.76082    -0.04101   0.28480   1.00
C5       0.77063    -0.01937   0.32185   1.00
H2       0.74544    -0.00129   0.33112   1.00
H2       0.77796    -0.03949   0.34616   1.00
H2       0.79605    0.00005    0.31695   1.00
C3b      0.74153    -0.04204   0.21578   1.00
C5       0.73053    -0.02152   0.17844   1.00
H2       0.75466    -0.00217   0.16890   1.00
H2       0.72435    -0.04235   0.15441   1.00
H2       0.70405    -0.00350   0.18307   1.00
C3a      0.76187    -0.08155   0.28471   1.00
H1       0.76969    -0.09700   0.31119   1.00
C3a      0.74278    -0.08257   0.21645   1.00
H1       0.73586    -0.09881   0.19019   1.00
C2       0.75290    -0.10243   0.25072   1.00
C2       0.74928    0.24710    0.10243   1.00
C3a      0.75898    0.21356    0.08116   1.00
H1       0.76624    0.18675    0.09631   1.00
C3a      0.73987    0.28180    0.08296   1.00
H1       0.73238    0.30771    0.09949   1.00
C3b      0.75937    0.21433    0.04062   1.00
C5       0.76993    0.17774    0.01856   1.00
H2       0.79602    0.18303    0.00016   1.00
H2       0.77655    0.15300    0.03839   1.00
H2       0.74539    0.16887    -0.00060   1.00
C3b      0.74005    0.28332    0.04244   1.00
C5       0.72979    0.32110    0.02233   1.00
H2       0.70396    0.31687    0.00330   1.00
H2       0.72288    0.34468    0.04345   1.00
H2       0.75458    0.33103    0.00406   1.00
C4       0.74985    0.24940    0.02127   1.00
C4       0.75015    0.25060    -0.02127   1.00
C3b      0.78480    0.26082    -0.04101   1.00
C5       0.82185    0.27063    -0.01937   1.00
H2       0.83112    0.24544    -0.00129   1.00
H2       0.84616    0.27796    -0.03949   1.00
H2       0.81695    0.29605    0.00005   1.00
C3b      0.71578    0.24153    -0.04204   1.00
C5       0.67844    0.23053    -0.02152   1.00
H2       0.66890    0.25466    -0.00217   1.00
H2       0.65441    0.22435    -0.04235   1.00
H2       0.68307    0.20405    -0.00350   1.00
C3a      0.78471    0.26187    -0.08155   1.00
H1       0.81119    0.26969    -0.09700   1.00
C3a      0.71645    0.24278    -0.08257   1.00
H1       0.69019    0.23586    -0.09881   1.00
C2       0.75072    0.25290    -0.10243   1.00
