data_IRMOF10_SG202_Ligand10_label_g.

_audit_creation_method             'generated by an auxiliary program of Tobunporous'

_symmetry_space_group_name_H-M     'P 1'
_symmetry_Int_Tables_number        1
_symmetry_cell_setting             triclinic

_cell_length_a                    34.2800
_cell_length_b                    34.2800
_cell_length_c                    34.2800
_cell_angle_alpha                 90.0000
_cell_angle_beta                  90.0000
_cell_angle_gamma                 90.0000

loop_
_atom_site_label
_atom_site_fract_x
_atom_site_fract_y
_atom_site_fract_z
_atom_site_occupancy
O1       0.75000    0.75000    0.75000   1.00
Zn1      0.71720    0.78280    0.78280   1.00
Zn1      0.78280    0.71720    0.78280   1.00
Zn1      0.78280    0.78280    0.71720   1.00
Zn1      0.71720    0.71720    0.71720   1.00
O2       0.72650    0.77350    0.83820   1.00
O2       0.72650    0.83820    0.77350   1.00
O2       0.66180    0.77350    0.77350   1.00
O2       0.77350    0.72650    0.83820   1.00
O2       0.83820    0.72650    0.77350   1.00
O2       0.77350    0.66180    0.77350   1.00
O2       0.77350    0.83820    0.72650   1.00
O2       0.83820    0.77350    0.72650   1.00
O2       0.77350    0.77350    0.66180   1.00
O2       0.66180    0.72650    0.72650   1.00
O2       0.72650    0.66180    0.72650   1.00
O2       0.72650    0.72650    0.66180   1.00
C1       0.75000    0.75000    0.85520   1.00
C1       0.75000    0.85520    0.75000   1.00
C1       0.64480    0.75000    0.75000   1.00
C1       0.85520    0.75000    0.75000   1.00
C1       0.75000    0.64480    0.75000   1.00
C1       0.75000    0.75000    0.64480   1.00
O1       0.25000    0.25000    0.75000   1.00
Zn1      0.21720    0.28280    0.78280   1.00
Zn1      0.28280    0.21720    0.78280   1.00
Zn1      0.28280    0.28280    0.71720   1.00
Zn1      0.21720    0.21720    0.71720   1.00
O2       0.22650    0.27350    0.83820   1.00
O2       0.22650    0.33820    0.77350   1.00
O2       0.16180    0.27350    0.77350   1.00
O2       0.27350    0.22650    0.83820   1.00
O2       0.33820    0.22650    0.77350   1.00
O2       0.27350    0.16180    0.77350   1.00
O2       0.27350    0.33820    0.72650   1.00
O2       0.33820    0.27350    0.72650   1.00
O2       0.27350    0.27350    0.66180   1.00
O2       0.16180    0.22650    0.72650   1.00
O2       0.22650    0.16180    0.72650   1.00
O2       0.22650    0.22650    0.66180   1.00
C1       0.25000    0.25000    0.85520   1.00
C1       0.25000    0.35520    0.75000   1.00
C1       0.14480    0.25000    0.75000   1.00
C1       0.35520    0.25000    0.75000   1.00
C1       0.25000    0.14480    0.75000   1.00
C1       0.25000    0.25000    0.64480   1.00
O1       0.25000    0.75000    0.25000   1.00
Zn1      0.21720    0.78280    0.28280   1.00
Zn1      0.28280    0.71720    0.28280   1.00
Zn1      0.28280    0.78280    0.21720   1.00
Zn1      0.21720    0.71720    0.21720   1.00
O2       0.22650    0.77350    0.33820   1.00
O2       0.22650    0.83820    0.27350   1.00
O2       0.16180    0.77350    0.27350   1.00
O2       0.27350    0.72650    0.33820   1.00
O2       0.33820    0.72650    0.27350   1.00
O2       0.27350    0.66180    0.27350   1.00
O2       0.27350    0.83820    0.22650   1.00
O2       0.33820    0.77350    0.22650   1.00
O2       0.27350    0.77350    0.16180   1.00
O2       0.16180    0.72650    0.22650   1.00
O2       0.22650    0.66180    0.22650   1.00
O2       0.22650    0.72650    0.16180   1.00
C1       0.25000    0.75000    0.35520   1.00
C1       0.25000    0.85520    0.25000   1.00
C1       0.14480    0.75000    0.25000   1.00
C1       0.35520    0.75000    0.25000   1.00
C1       0.25000    0.64480    0.25000   1.00
C1       0.25000    0.75000    0.14480   1.00
O1       0.75000    0.25000    0.25000   1.00
Zn1      0.71720    0.28280    0.28280   1.00
Zn1      0.78280    0.21720    0.28280   1.00
Zn1      0.78280    0.28280    0.21720   1.00
Zn1      0.71720    0.21720    0.21720   1.00
O2       0.72650    0.27350    0.33820   1.00
O2       0.72650    0.33820    0.27350   1.00
O2       0.66180    0.27350    0.27350   1.00
O2       0.77350    0.22650    0.33820   1.00
O2       0.83820    0.22650    0.27350   1.00
O2       0.77350    0.16180    0.27350   1.00
O2       0.77350    0.33820    0.22650   1.00
O2       0.83820    0.27350    0.22650   1.00
O2       0.77350    0.27350    0.16180   1.00
O2       0.66180    0.22650    0.22650   1.00
O2       0.72650    0.16180    0.22650   1.00
O2       0.72650    0.22650    0.16180   1.00
C1       0.75000    0.25000    0.35520   1.00
C1       0.75000    0.35520    0.25000   1.00
C1       0.64480    0.25000    0.25000   1.00
C1       0.85520    0.25000    0.25000   1.00
C1       0.75000    0.14480    0.25000   1.00
C1       0.75000    0.25000    0.14480   1.00
O1       0.25000    0.25000    0.25000   1.00
Zn1      0.28280    0.21720    0.21720   1.00
Zn1      0.21720    0.28280    0.21720   1.00
Zn1      0.21720    0.21720    0.28280   1.00
Zn1      0.28280    0.28280    0.28280   1.00
O2       0.27350    0.22650    0.16180   1.00
O2       0.27350    0.16180    0.22650   1.00
O2       0.33820    0.22650    0.22650   1.00
O2       0.22650    0.27350    0.16180   1.00
O2       0.16180    0.27350    0.22650   1.00
O2       0.22650    0.33820    0.22650   1.00
O2       0.22650    0.16180    0.27350   1.00
O2       0.16180    0.22650    0.27350   1.00
O2       0.22650    0.22650    0.33820   1.00
O2       0.33820    0.27350    0.27350   1.00
O2       0.27350    0.33820    0.27350   1.00
O2       0.27350    0.27350    0.33820   1.00
C1       0.25000    0.25000    0.14480   1.00
C1       0.25000    0.14480    0.25000   1.00
C1       0.35520    0.25000    0.25000   1.00
C1       0.14480    0.25000    0.25000   1.00
C1       0.25000    0.35520    0.25000   1.00
C1       0.25000    0.25000    0.35520   1.00
O1       0.75000    0.75000    0.25000   1.00
Zn1      0.78280    0.71720    0.21720   1.00
Zn1      0.71720    0.78280    0.21720   1.00
Zn1      0.71720    0.71720    0.28280   1.00
Zn1      0.78280    0.78280    0.28280   1.00
O2       0.77350    0.72650    0.16180   1.00
O2       0.77350    0.66180    0.22650   1.00
O2       0.83820    0.72650    0.22650   1.00
O2       0.72650    0.77350    0.16180   1.00
O2       0.66180    0.77350    0.22650   1.00
O2       0.72650    0.83820    0.22650   1.00
O2       0.72650    0.66180    0.27350   1.00
O2       0.66180    0.72650    0.27350   1.00
O2       0.72650    0.72650    0.33820   1.00
O2       0.83820    0.77350    0.27350   1.00
O2       0.77350    0.83820    0.27350   1.00
O2       0.77350    0.77350    0.33820   1.00
C1       0.75000    0.75000    0.14480   1.00
C1       0.75000    0.64480    0.25000   1.00
C1       0.85520    0.75000    0.25000   1.00
C1       0.64480    0.75000    0.25000   1.00
C1       0.75000    0.85520    0.25000   1.00
C1       0.75000    0.75000    0.35520   1.00
O1       0.75000    0.25000    0.75000   1.00
Zn1      0.78280    0.21720    0.71720   1.00
Zn1      0.71720    0.28280    0.71720   1.00
Zn1      0.71720    0.21720    0.78280   1.00
Zn1      0.78280    0.28280    0.78280   1.00
O2       0.77350    0.22650    0.66180   1.00
O2       0.77350    0.16180    0.72650   1.00
O2       0.83820    0.22650    0.72650   1.00
O2       0.72650    0.27350    0.66180   1.00
O2       0.66180    0.27350    0.72650   1.00
O2       0.72650    0.33820    0.72650   1.00
O2       0.72650    0.16180    0.77350   1.00
O2       0.66180    0.22650    0.77350   1.00
O2       0.72650    0.22650    0.83820   1.00
O2       0.83820    0.27350    0.77350   1.00
O2       0.77350    0.33820    0.77350   1.00
O2       0.77350    0.27350    0.83820   1.00
C1       0.75000    0.25000    0.64480   1.00
C1       0.75000    0.14480    0.75000   1.00
C1       0.85520    0.25000    0.75000   1.00
C1       0.64480    0.25000    0.75000   1.00
C1       0.75000    0.35520    0.75000   1.00
C1       0.75000    0.25000    0.85520   1.00
O1       0.25000    0.75000    0.75000   1.00
Zn1      0.28280    0.71720    0.71720   1.00
Zn1      0.21720    0.78280    0.71720   1.00
Zn1      0.21720    0.71720    0.78280   1.00
Zn1      0.28280    0.78280    0.78280   1.00
O2       0.27350    0.72650    0.66180   1.00
O2       0.27350    0.66180    0.72650   1.00
O2       0.33820    0.72650    0.72650   1.00
O2       0.22650    0.77350    0.66180   1.00
O2       0.16180    0.77350    0.72650   1.00
O2       0.22650    0.83820    0.72650   1.00
O2       0.22650    0.66180    0.77350   1.00
O2       0.16180    0.72650    0.77350   1.00
O2       0.22650    0.72650    0.83820   1.00
O2       0.33820    0.77350    0.77350   1.00
O2       0.27350    0.83820    0.77350   1.00
O2       0.27350    0.77350    0.83820   1.00
C1       0.25000    0.75000    0.64480   1.00
C1       0.25000    0.64480    0.75000   1.00
C1       0.35520    0.75000    0.75000   1.00
C1       0.14480    0.75000    0.75000   1.00
C1       0.25000    0.85520    0.75000   1.00
C1       0.25000    0.75000    0.85520   1.00
C4       0.75031    0.75022    0.97915   1.00
C4       0.74969    0.74978    1.02085   1.00
C3       0.77982    0.73105    0.95751   1.00
C3       0.75950    0.71604    1.04252   1.00
C3       0.72081    0.76925    0.95738   1.00
C3       0.74001    0.78353    1.04259   1.00
C2       0.75009    0.74987    0.89482   1.00
C2       0.75009    0.74987    1.10518   1.00
C3a      0.77985    0.73080    0.91599   1.00
C3       0.75966    0.71616    1.08382   1.00
C3       0.72076    0.76903    0.91611   1.00
C3a      0.74013    0.78377    1.08403   1.00
H1       0.80317    0.71643    0.97294   1.00
H1       0.76678    0.68922    1.02750   1.00
C5       0.81187    0.71023    0.89410   1.00
H1       0.76731    0.68972    1.09933   1.00
H1       0.69749    0.78368    0.90056   1.00
C5       0.72950    0.82067    1.10535   1.00
H1       0.73335    0.81044    1.02747   1.00
H1       0.69707    0.78379    0.97230   1.00
H2       0.69872    0.82815    1.09837   1.00
H2       0.73128    0.81652    1.13747   1.00
N1       0.75546    0.85258    1.09395   1.00
C6       0.75863    0.86833    1.05810   1.00
C6       0.78028    0.87182    1.11757   1.00
C6       0.78594    0.89788    1.05873   1.00
C6       0.79971    0.90010    1.09656   1.00
H3       0.74212    0.85903    1.03281   1.00
H3       0.78419    0.86564    1.14831   1.00
H3       0.79480    0.91586    1.03436   1.00
H3       0.82146    0.92010    1.10758   1.00
H2       0.80625    0.71295    0.86228   1.00
H2       0.84069    0.72383    0.90001   1.00
N1       0.81337    0.66915    0.90523   1.00
C6       0.80768    0.63622    0.88078   1.00
C6       0.82111    0.65362    0.94285   1.00
C6       0.81175    0.60271    0.90277   1.00
C6       0.81998    0.61340    0.94091   1.00
H3       0.80111    0.63747    0.84992   1.00
H3       0.82657    0.67085    0.96876   1.00
H3       0.80891    0.57318    0.89205   1.00
H3       0.82462    0.59364    0.96505   1.00
C4       0.75022    0.97915    0.75031   1.00
C4       0.74978    1.02085    0.74969   1.00
C3       0.73105    0.95751    0.77982   1.00
C3       0.71604    1.04252    0.75950   1.00
C3       0.76925    0.95738    0.72081   1.00
C3       0.78353    1.04259    0.74001   1.00
C2       0.74987    0.89482    0.75009   1.00
C2       0.74987    1.10518    0.75009   1.00
C3a      0.73080    0.91599    0.77985   1.00
C3       0.71616    1.08382    0.75966   1.00
C3       0.76903    0.91611    0.72076   1.00
C3a      0.78377    1.08403    0.74013   1.00
H1       0.71643    0.97294    0.80317   1.00
H1       0.68922    1.02750    0.76678   1.00
C5       0.71023    0.89410    0.81187   1.00
H1       0.68972    1.09933    0.76731   1.00
H1       0.78368    0.90056    0.69749   1.00
C5       0.82067    1.10535    0.72950   1.00
H1       0.81044    1.02747    0.73335   1.00
H1       0.78379    0.97230    0.69707   1.00
H2       0.82815    1.09837    0.69872   1.00
H2       0.81652    1.13747    0.73128   1.00
N1       0.85258    1.09395    0.75546   1.00
C6       0.86833    1.05810    0.75863   1.00
C6       0.87182    1.11757    0.78028   1.00
C6       0.89788    1.05873    0.78594   1.00
C6       0.90010    1.09656    0.79971   1.00
H3       0.85903    1.03281    0.74212   1.00
H3       0.86564    1.14831    0.78419   1.00
H3       0.91586    1.03436    0.79480   1.00
H3       0.92010    1.10758    0.82146   1.00
H2       0.71295    0.86228    0.80625   1.00
H2       0.72383    0.90001    0.84069   1.00
N1       0.66915    0.90523    0.81337   1.00
C6       0.63622    0.88078    0.80768   1.00
C6       0.65362    0.94285    0.82111   1.00
C6       0.60271    0.90277    0.81175   1.00
C6       0.61340    0.94091    0.81998   1.00
H3       0.63747    0.84992    0.80111   1.00
H3       0.67085    0.96876    0.82657   1.00
H3       0.57318    0.89205    0.80891   1.00
H3       0.59364    0.96505    0.82462   1.00
C4       0.52085    0.75031    0.74978   1.00
C4       0.47915    0.74969    0.75022   1.00
C3       0.54249    0.77982    0.76895   1.00
C3       0.45748    0.75950    0.78396   1.00
C3       0.54262    0.72081    0.73075   1.00
C3       0.45741    0.74001    0.71647   1.00
C2       0.60518    0.75009    0.75013   1.00
C2       0.39482    0.75009    0.75013   1.00
C3a      0.58401    0.77985    0.76920   1.00
C3       0.41618    0.75966    0.78384   1.00
C3       0.58389    0.72076    0.73097   1.00
C3a      0.41597    0.74013    0.71623   1.00
H1       0.52706    0.80317    0.78357   1.00
H1       0.47250    0.76678    0.81078   1.00
C5       0.60590    0.81187    0.78977   1.00
H1       0.40067    0.76731    0.81028   1.00
H1       0.59944    0.69749    0.71632   1.00
C5       0.39465    0.72950    0.67933   1.00
H1       0.47253    0.73335    0.68956   1.00
H1       0.52770    0.69707    0.71621   1.00
H2       0.40163    0.69872    0.67185   1.00
H2       0.36253    0.73128    0.68348   1.00
N1       0.40605    0.75546    0.64742   1.00
C6       0.44190    0.75863    0.63167   1.00
C6       0.38243    0.78028    0.62818   1.00
C6       0.44127    0.78594    0.60212   1.00
C6       0.40344    0.79971    0.59990   1.00
H3       0.46719    0.74212    0.64097   1.00
H3       0.35169    0.78419    0.63436   1.00
H3       0.46564    0.79480    0.58414   1.00
H3       0.39242    0.82146    0.57990   1.00
H2       0.63772    0.80625    0.78705   1.00
H2       0.59999    0.84069    0.77617   1.00
N1       0.59477    0.81337    0.83085   1.00
C6       0.61922    0.80768    0.86378   1.00
C6       0.55715    0.82111    0.84638   1.00
C6       0.59723    0.81175    0.89729   1.00
C6       0.55909    0.81998    0.88660   1.00
H3       0.65008    0.80111    0.86253   1.00
H3       0.53124    0.82657    0.82915   1.00
H3       0.60795    0.80891    0.92682   1.00
H3       0.53495    0.82462    0.90636   1.00
C4       0.97915    0.75031    0.75022   1.00
C4       1.02085    0.74969    0.74978   1.00
C3       0.95751    0.77982    0.73105   1.00
C3       1.04252    0.75950    0.71604   1.00
C3       0.95738    0.72081    0.76925   1.00
C3       1.04259    0.74001    0.78353   1.00
C2       0.89482    0.75009    0.74987   1.00
C2       1.10518    0.75009    0.74987   1.00
C3a      0.91599    0.77985    0.73080   1.00
C3       1.08382    0.75966    0.71616   1.00
C3       0.91611    0.72076    0.76903   1.00
C3a      1.08403    0.74013    0.78377   1.00
H1       0.97294    0.80317    0.71643   1.00
H1       1.02750    0.76678    0.68922   1.00
C5       0.89410    0.81187    0.71023   1.00
H1       1.09933    0.76731    0.68972   1.00
H1       0.90056    0.69749    0.78368   1.00
C5       1.10535    0.72950    0.82067   1.00
H1       1.02747    0.73335    0.81044   1.00
H1       0.97230    0.69707    0.78379   1.00
H2       1.09837    0.69872    0.82815   1.00
H2       1.13747    0.73128    0.81652   1.00
N1       1.09395    0.75546    0.85258   1.00
C6       1.05810    0.75863    0.86833   1.00
C6       1.11757    0.78028    0.87182   1.00
C6       1.05873    0.78594    0.89788   1.00
C6       1.09656    0.79971    0.90010   1.00
H3       1.03281    0.74212    0.85903   1.00
H3       1.14831    0.78419    0.86564   1.00
H3       1.03436    0.79480    0.91586   1.00
H3       1.10758    0.82146    0.92010   1.00
H2       0.86228    0.80625    0.71295   1.00
H2       0.90001    0.84069    0.72383   1.00
N1       0.90523    0.81337    0.66915   1.00
C6       0.88078    0.80768    0.63622   1.00
C6       0.94285    0.82111    0.65362   1.00
C6       0.90277    0.81175    0.60271   1.00
C6       0.94091    0.81998    0.61340   1.00
H3       0.84992    0.80111    0.63747   1.00
H3       0.96876    0.82657    0.67085   1.00
H3       0.89205    0.80891    0.57318   1.00
H3       0.96505    0.82462    0.59364   1.00
C4       0.74978    0.52085    0.75031   1.00
C4       0.75022    0.47915    0.74969   1.00
C3       0.76895    0.54249    0.77982   1.00
C3       0.78396    0.45748    0.75950   1.00
C3       0.73075    0.54262    0.72081   1.00
C3       0.71647    0.45741    0.74001   1.00
C2       0.75013    0.60518    0.75009   1.00
C2       0.75013    0.39482    0.75009   1.00
C3a      0.76920    0.58401    0.77985   1.00
C3       0.78384    0.41618    0.75966   1.00
C3       0.73097    0.58389    0.72076   1.00
C3a      0.71623    0.41597    0.74013   1.00
H1       0.78357    0.52706    0.80317   1.00
H1       0.81078    0.47250    0.76678   1.00
C5       0.78977    0.60590    0.81187   1.00
H1       0.81028    0.40067    0.76731   1.00
H1       0.71632    0.59944    0.69749   1.00
C5       0.67933    0.39465    0.72950   1.00
H1       0.68956    0.47253    0.73335   1.00
H1       0.71621    0.52770    0.69707   1.00
H2       0.67185    0.40163    0.69872   1.00
H2       0.68348    0.36253    0.73128   1.00
N1       0.64742    0.40605    0.75546   1.00
C6       0.63167    0.44190    0.75863   1.00
C6       0.62818    0.38243    0.78028   1.00
C6       0.60212    0.44127    0.78594   1.00
C6       0.59990    0.40344    0.79971   1.00
H3       0.64097    0.46719    0.74212   1.00
H3       0.63436    0.35169    0.78419   1.00
H3       0.58414    0.46564    0.79480   1.00
H3       0.57990    0.39242    0.82146   1.00
H2       0.78705    0.63772    0.80625   1.00
H2       0.77617    0.59999    0.84069   1.00
N1       0.83085    0.59477    0.81337   1.00
C6       0.86378    0.61922    0.80768   1.00
C6       0.84638    0.55715    0.82111   1.00
C6       0.89729    0.59723    0.81175   1.00
C6       0.88660    0.55909    0.81998   1.00
H3       0.86253    0.65008    0.80111   1.00
H3       0.82915    0.53124    0.82657   1.00
H3       0.92682    0.60795    0.80891   1.00
H3       0.90636    0.53495    0.82462   1.00
C4       0.75031    0.74978    0.52085   1.00
C4       0.74969    0.75022    0.47915   1.00
C3       0.77982    0.76895    0.54249   1.00
C3       0.75950    0.78396    0.45748   1.00
C3       0.72081    0.73075    0.54262   1.00
C3       0.74001    0.71647    0.45741   1.00
C2       0.75009    0.75013    0.60518   1.00
C2       0.75009    0.75013    0.39482   1.00
C3a      0.77985    0.76920    0.58401   1.00
C3       0.75966    0.78384    0.41618   1.00
C3       0.72076    0.73097    0.58389   1.00
C3a      0.74013    0.71623    0.41597   1.00
H1       0.80317    0.78357    0.52706   1.00
H1       0.76678    0.81078    0.47250   1.00
C5       0.81187    0.78977    0.60590   1.00
H1       0.76731    0.81028    0.40067   1.00
H1       0.69749    0.71632    0.59944   1.00
C5       0.72950    0.67933    0.39465   1.00
H1       0.73335    0.68956    0.47253   1.00
H1       0.69707    0.71621    0.52770   1.00
H2       0.69872    0.67185    0.40163   1.00
H2       0.73128    0.68348    0.36253   1.00
N1       0.75546    0.64742    0.40605   1.00
C6       0.75863    0.63167    0.44190   1.00
C6       0.78028    0.62818    0.38243   1.00
C6       0.78594    0.60212    0.44127   1.00
C6       0.79971    0.59990    0.40344   1.00
H3       0.74212    0.64097    0.46719   1.00
H3       0.78419    0.63436    0.35169   1.00
H3       0.79480    0.58414    0.46564   1.00
H3       0.82146    0.57990    0.39242   1.00
H2       0.80625    0.78705    0.63772   1.00
H2       0.84069    0.77617    0.59999   1.00
N1       0.81337    0.83085    0.59477   1.00
C6       0.80768    0.86378    0.61922   1.00
C6       0.82111    0.84638    0.55715   1.00
C6       0.81175    0.89729    0.59723   1.00
C6       0.81998    0.88660    0.55909   1.00
H3       0.80111    0.86253    0.65008   1.00
H3       0.82657    0.82915    0.53124   1.00
H3       0.80891    0.92682    0.60795   1.00
H3       0.82462    0.90636    0.53495   1.00
C4       0.25031    0.25022    0.97915   1.00
C4       0.24969    0.24978    1.02085   1.00
C3       0.27982    0.23105    0.95751   1.00
C3       0.25950    0.21604    1.04252   1.00
C3       0.22081    0.26925    0.95738   1.00
C3       0.24001    0.28353    1.04259   1.00
C2       0.25009    0.24987    0.89482   1.00
C2       0.25009    0.24987    1.10518   1.00
C3a      0.27985    0.23080    0.91599   1.00
C3       0.25966    0.21616    1.08382   1.00
C3       0.22076    0.26903    0.91611   1.00
C3a      0.24013    0.28377    1.08403   1.00
H1       0.30317    0.21643    0.97294   1.00
H1       0.26678    0.18922    1.02750   1.00
C5       0.31187    0.21023    0.89410   1.00
H1       0.26731    0.18972    1.09933   1.00
H1       0.19749    0.28368    0.90056   1.00
C5       0.22950    0.32067    1.10535   1.00
H1       0.23335    0.31044    1.02747   1.00
H1       0.19707    0.28379    0.97230   1.00
H2       0.19872    0.32815    1.09837   1.00
H2       0.23128    0.31652    1.13747   1.00
N1       0.25546    0.35258    1.09395   1.00
C6       0.25863    0.36833    1.05810   1.00
C6       0.28028    0.37182    1.11757   1.00
C6       0.28594    0.39788    1.05873   1.00
C6       0.29971    0.40010    1.09656   1.00
H3       0.24212    0.35903    1.03281   1.00
H3       0.28419    0.36564    1.14831   1.00
H3       0.29480    0.41586    1.03436   1.00
H3       0.32146    0.42010    1.10758   1.00
H2       0.30625    0.21295    0.86228   1.00
H2       0.34069    0.22383    0.90001   1.00
N1       0.31337    0.16915    0.90523   1.00
C6       0.30768    0.13622    0.88078   1.00
C6       0.32111    0.15362    0.94285   1.00
C6       0.31175    0.10271    0.90277   1.00
C6       0.31998    0.11340    0.94091   1.00
H3       0.30111    0.13747    0.84992   1.00
H3       0.32657    0.17085    0.96876   1.00
H3       0.30891    0.07318    0.89205   1.00
H3       0.32462    0.09364    0.96505   1.00
C4       0.25022    0.47915    0.75031   1.00
C4       0.24978    0.52085    0.74969   1.00
C3       0.23105    0.45751    0.77982   1.00
C3       0.21604    0.54252    0.75950   1.00
C3       0.26925    0.45738    0.72081   1.00
C3       0.28353    0.54259    0.74001   1.00
C2       0.24987    0.39482    0.75009   1.00
C2       0.24987    0.60518    0.75009   1.00
C3a      0.23080    0.41599    0.77985   1.00
C3       0.21616    0.58382    0.75966   1.00
C3       0.26903    0.41611    0.72076   1.00
C3a      0.28377    0.58403    0.74013   1.00
H1       0.21643    0.47294    0.80317   1.00
H1       0.18922    0.52750    0.76678   1.00
C5       0.21023    0.39410    0.81187   1.00
H1       0.18972    0.59933    0.76731   1.00
H1       0.28368    0.40056    0.69749   1.00
C5       0.32067    0.60535    0.72950   1.00
H1       0.31044    0.52747    0.73335   1.00
H1       0.28379    0.47230    0.69707   1.00
H2       0.32815    0.59837    0.69872   1.00
H2       0.31652    0.63747    0.73128   1.00
N1       0.35258    0.59395    0.75546   1.00
C6       0.36833    0.55810    0.75863   1.00
C6       0.37182    0.61757    0.78028   1.00
C6       0.39788    0.55873    0.78594   1.00
C6       0.40010    0.59656    0.79971   1.00
H3       0.35903    0.53281    0.74212   1.00
H3       0.36564    0.64831    0.78419   1.00
H3       0.41586    0.53436    0.79480   1.00
H3       0.42010    0.60758    0.82146   1.00
H2       0.21295    0.36228    0.80625   1.00
H2       0.22383    0.40001    0.84069   1.00
N1       0.16915    0.40523    0.81337   1.00
C6       0.13622    0.38078    0.80768   1.00
C6       0.15362    0.44285    0.82111   1.00
C6       0.10271    0.40277    0.81175   1.00
C6       0.11340    0.44091    0.81998   1.00
H3       0.13747    0.34992    0.80111   1.00
H3       0.17085    0.46876    0.82657   1.00
H3       0.07318    0.39205    0.80891   1.00
H3       0.09364    0.46505    0.82462   1.00
C4       0.02085    0.25031    0.74978   1.00
C4       -0.02085   0.24969    0.75022   1.00
C3       0.04249    0.27982    0.76895   1.00
C3       -0.04252   0.25950    0.78396   1.00
C3       0.04262    0.22081    0.73075   1.00
C3       -0.04259   0.24001    0.71647   1.00
C2       0.10518    0.25009    0.75013   1.00
C2       -0.10518   0.25009    0.75013   1.00
C3a      0.08401    0.27985    0.76920   1.00
C3       -0.08382   0.25966    0.78384   1.00
C3       0.08389    0.22076    0.73097   1.00
C3a      -0.08403   0.24013    0.71623   1.00
H1       0.02706    0.30317    0.78357   1.00
H1       -0.02750   0.26678    0.81078   1.00
C5       0.10590    0.31187    0.78977   1.00
H1       -0.09933   0.26731    0.81028   1.00
H1       0.09944    0.19749    0.71632   1.00
C5       -0.10535   0.22950    0.67933   1.00
H1       -0.02747   0.23335    0.68956   1.00
H1       0.02770    0.19707    0.71621   1.00
H2       -0.09837   0.19872    0.67185   1.00
H2       -0.13747   0.23128    0.68348   1.00
N1       -0.09395   0.25546    0.64742   1.00
C6       -0.05810   0.25863    0.63167   1.00
C6       -0.11757   0.28028    0.62818   1.00
C6       -0.05873   0.28594    0.60212   1.00
C6       -0.09656   0.29971    0.59990   1.00
H3       -0.03281   0.24212    0.64097   1.00
H3       -0.14831   0.28419    0.63436   1.00
H3       -0.03436   0.29480    0.58414   1.00
H3       -0.10758   0.32146    0.57990   1.00
H2       0.13772    0.30625    0.78705   1.00
H2       0.09999    0.34069    0.77617   1.00
N1       0.09477    0.31337    0.83085   1.00
C6       0.11922    0.30768    0.86378   1.00
C6       0.05715    0.32111    0.84638   1.00
C6       0.09723    0.31175    0.89729   1.00
C6       0.05909    0.31998    0.88660   1.00
H3       0.15008    0.30111    0.86253   1.00
H3       0.03124    0.32657    0.82915   1.00
H3       0.10795    0.30891    0.92682   1.00
H3       0.03495    0.32462    0.90636   1.00
C4       0.47915    0.25031    0.75022   1.00
C4       0.52085    0.24969    0.74978   1.00
C3       0.45751    0.27982    0.73105   1.00
C3       0.54252    0.25950    0.71604   1.00
C3       0.45738    0.22081    0.76925   1.00
C3       0.54259    0.24001    0.78353   1.00
C2       0.39482    0.25009    0.74987   1.00
C2       0.60518    0.25009    0.74987   1.00
C3a      0.41599    0.27985    0.73080   1.00
C3       0.58382    0.25966    0.71616   1.00
C3       0.41611    0.22076    0.76903   1.00
C3a      0.58403    0.24013    0.78377   1.00
H1       0.47294    0.30317    0.71643   1.00
H1       0.52750    0.26678    0.68922   1.00
C5       0.39410    0.31187    0.71023   1.00
H1       0.59933    0.26731    0.68972   1.00
H1       0.40056    0.19749    0.78368   1.00
C5       0.60535    0.22950    0.82067   1.00
H1       0.52747    0.23335    0.81044   1.00
H1       0.47230    0.19707    0.78379   1.00
H2       0.59837    0.19872    0.82815   1.00
H2       0.63747    0.23128    0.81652   1.00
N1       0.59395    0.25546    0.85258   1.00
C6       0.55810    0.25863    0.86833   1.00
C6       0.61757    0.28028    0.87182   1.00
C6       0.55873    0.28594    0.89788   1.00
C6       0.59656    0.29971    0.90010   1.00
H3       0.53281    0.24212    0.85903   1.00
H3       0.64831    0.28419    0.86564   1.00
H3       0.53436    0.29480    0.91586   1.00
H3       0.60758    0.32146    0.92010   1.00
H2       0.36228    0.30625    0.71295   1.00
H2       0.40001    0.34069    0.72383   1.00
N1       0.40523    0.31337    0.66915   1.00
C6       0.38078    0.30768    0.63622   1.00
C6       0.44285    0.32111    0.65362   1.00
C6       0.40277    0.31175    0.60271   1.00
C6       0.44091    0.31998    0.61340   1.00
H3       0.34992    0.30111    0.63747   1.00
H3       0.46876    0.32657    0.67085   1.00
H3       0.39205    0.30891    0.57318   1.00
H3       0.46505    0.32462    0.59364   1.00
C4       0.24978    0.02085    0.75031   1.00
C4       0.25022    -0.02085   0.74969   1.00
C3       0.26895    0.04249    0.77982   1.00
C3       0.28396    -0.04252   0.75950   1.00
C3       0.23075    0.04262    0.72081   1.00
C3       0.21647    -0.04259   0.74001   1.00
C2       0.25013    0.10518    0.75009   1.00
C2       0.25013    -0.10518   0.75009   1.00
C3a      0.26920    0.08401    0.77985   1.00
C3       0.28384    -0.08382   0.75966   1.00
C3       0.23097    0.08389    0.72076   1.00
C3a      0.21623    -0.08403   0.74013   1.00
H1       0.28357    0.02706    0.80317   1.00
H1       0.31078    -0.02750   0.76678   1.00
C5       0.28977    0.10590    0.81187   1.00
H1       0.31028    -0.09933   0.76731   1.00
H1       0.21632    0.09944    0.69749   1.00
C5       0.17933    -0.10535   0.72950   1.00
H1       0.18956    -0.02747   0.73335   1.00
H1       0.21621    0.02770    0.69707   1.00
H2       0.17185    -0.09837   0.69872   1.00
H2       0.18348    -0.13747   0.73128   1.00
N1       0.14742    -0.09395   0.75546   1.00
C6       0.13167    -0.05810   0.75863   1.00
C6       0.12818    -0.11757   0.78028   1.00
C6       0.10212    -0.05873   0.78594   1.00
C6       0.09990    -0.09656   0.79971   1.00
H3       0.14097    -0.03281   0.74212   1.00
H3       0.13436    -0.14831   0.78419   1.00
H3       0.08414    -0.03436   0.79480   1.00
H3       0.07990    -0.10758   0.82146   1.00
H2       0.28705    0.13772    0.80625   1.00
H2       0.27617    0.09999    0.84069   1.00
N1       0.33085    0.09477    0.81337   1.00
C6       0.36378    0.11922    0.80768   1.00
C6       0.34638    0.05715    0.82111   1.00
C6       0.39729    0.09723    0.81175   1.00
C6       0.38660    0.05909    0.81998   1.00
H3       0.36253    0.15008    0.80111   1.00
H3       0.32915    0.03124    0.82657   1.00
H3       0.42682    0.10795    0.80891   1.00
H3       0.40636    0.03495    0.82462   1.00
C4       0.25031    0.24978    0.52085   1.00
C4       0.24969    0.25022    0.47915   1.00
C3       0.27982    0.26895    0.54249   1.00
C3       0.25950    0.28396    0.45748   1.00
C3       0.22081    0.23075    0.54262   1.00
C3       0.24001    0.21647    0.45741   1.00
C2       0.25009    0.25013    0.60518   1.00
C2       0.25009    0.25013    0.39482   1.00
C3a      0.27985    0.26920    0.58401   1.00
C3       0.25966    0.28384    0.41618   1.00
C3       0.22076    0.23097    0.58389   1.00
C3a      0.24013    0.21623    0.41597   1.00
H1       0.30317    0.28357    0.52706   1.00
H1       0.26678    0.31078    0.47250   1.00
C5       0.31187    0.28977    0.60590   1.00
H1       0.26731    0.31028    0.40067   1.00
H1       0.19749    0.21632    0.59944   1.00
C5       0.22950    0.17933    0.39465   1.00
H1       0.23335    0.18956    0.47253   1.00
H1       0.19707    0.21621    0.52770   1.00
H2       0.19872    0.17185    0.40163   1.00
H2       0.23128    0.18348    0.36253   1.00
N1       0.25546    0.14742    0.40605   1.00
C6       0.25863    0.13167    0.44190   1.00
C6       0.28028    0.12818    0.38243   1.00
C6       0.28594    0.10212    0.44127   1.00
C6       0.29971    0.09990    0.40344   1.00
H3       0.24212    0.14097    0.46719   1.00
H3       0.28419    0.13436    0.35169   1.00
H3       0.29480    0.08414    0.46564   1.00
H3       0.32146    0.07990    0.39242   1.00
H2       0.30625    0.28705    0.63772   1.00
H2       0.34069    0.27617    0.59999   1.00
N1       0.31337    0.33085    0.59477   1.00
C6       0.30768    0.36378    0.61922   1.00
C6       0.32111    0.34638    0.55715   1.00
C6       0.31175    0.39729    0.59723   1.00
C6       0.31998    0.38660    0.55909   1.00
H3       0.30111    0.36253    0.65008   1.00
H3       0.32657    0.32915    0.53124   1.00
H3       0.30891    0.42682    0.60795   1.00
H3       0.32462    0.40636    0.53495   1.00
C4       0.25031    0.75022    0.47915   1.00
C4       0.24969    0.74978    0.52085   1.00
C3       0.27982    0.73105    0.45751   1.00
C3       0.25950    0.71604    0.54252   1.00
C3       0.22081    0.76925    0.45738   1.00
C3       0.24001    0.78353    0.54259   1.00
C2       0.25009    0.74987    0.39482   1.00
C2       0.25009    0.74987    0.60518   1.00
C3a      0.27985    0.73080    0.41599   1.00
C3       0.25966    0.71616    0.58382   1.00
C3       0.22076    0.76903    0.41611   1.00
C3a      0.24013    0.78377    0.58403   1.00
H1       0.30317    0.71643    0.47294   1.00
H1       0.26678    0.68922    0.52750   1.00
C5       0.31187    0.71023    0.39410   1.00
H1       0.26731    0.68972    0.59933   1.00
H1       0.19749    0.78368    0.40056   1.00
C5       0.22950    0.82067    0.60535   1.00
H1       0.23335    0.81044    0.52747   1.00
H1       0.19707    0.78379    0.47230   1.00
H2       0.19872    0.82815    0.59837   1.00
H2       0.23128    0.81652    0.63747   1.00
N1       0.25546    0.85258    0.59395   1.00
C6       0.25863    0.86833    0.55810   1.00
C6       0.28028    0.87182    0.61757   1.00
C6       0.28594    0.89788    0.55873   1.00
C6       0.29971    0.90010    0.59656   1.00
H3       0.24212    0.85903    0.53281   1.00
H3       0.28419    0.86564    0.64831   1.00
H3       0.29480    0.91586    0.53436   1.00
H3       0.32146    0.92010    0.60758   1.00
H2       0.30625    0.71295    0.36228   1.00
H2       0.34069    0.72383    0.40001   1.00
N1       0.31337    0.66915    0.40523   1.00
C6       0.30768    0.63622    0.38078   1.00
C6       0.32111    0.65362    0.44285   1.00
C6       0.31175    0.60271    0.40277   1.00
C6       0.31998    0.61340    0.44091   1.00
H3       0.30111    0.63747    0.34992   1.00
H3       0.32657    0.67085    0.46876   1.00
H3       0.30891    0.57318    0.39205   1.00
H3       0.32462    0.59364    0.46505   1.00
C4       0.25022    0.97915    0.25031   1.00
C4       0.24978    1.02085    0.24969   1.00
C3       0.23105    0.95751    0.27982   1.00
C3       0.21604    1.04252    0.25950   1.00
C3       0.26925    0.95738    0.22081   1.00
C3       0.28353    1.04259    0.24001   1.00
C2       0.24987    0.89482    0.25009   1.00
C2       0.24987    1.10518    0.25009   1.00
C3a      0.23080    0.91599    0.27985   1.00
C3       0.21616    1.08382    0.25966   1.00
C3       0.26903    0.91611    0.22076   1.00
C3a      0.28377    1.08403    0.24013   1.00
H1       0.21643    0.97294    0.30317   1.00
H1       0.18922    1.02750    0.26678   1.00
C5       0.21023    0.89410    0.31187   1.00
H1       0.18972    1.09933    0.26731   1.00
H1       0.28368    0.90056    0.19749   1.00
C5       0.32067    1.10535    0.22950   1.00
H1       0.31044    1.02747    0.23335   1.00
H1       0.28379    0.97230    0.19707   1.00
H2       0.32815    1.09837    0.19872   1.00
H2       0.31652    1.13747    0.23128   1.00
N1       0.35258    1.09395    0.25546   1.00
C6       0.36833    1.05810    0.25863   1.00
C6       0.37182    1.11757    0.28028   1.00
C6       0.39788    1.05873    0.28594   1.00
C6       0.40010    1.09656    0.29971   1.00
H3       0.35903    1.03281    0.24212   1.00
H3       0.36564    1.14831    0.28419   1.00
H3       0.41586    1.03436    0.29480   1.00
H3       0.42010    1.10758    0.32146   1.00
H2       0.21295    0.86228    0.30625   1.00
H2       0.22383    0.90001    0.34069   1.00
N1       0.16915    0.90523    0.31337   1.00
C6       0.13622    0.88078    0.30768   1.00
C6       0.15362    0.94285    0.32111   1.00
C6       0.10271    0.90277    0.31175   1.00
C6       0.11340    0.94091    0.31998   1.00
H3       0.13747    0.84992    0.30111   1.00
H3       0.17085    0.96876    0.32657   1.00
H3       0.07318    0.89205    0.30891   1.00
H3       0.09364    0.96505    0.32462   1.00
C4       0.02085    0.75031    0.24978   1.00
C4       -0.02085   0.74969    0.25022   1.00
C3       0.04249    0.77982    0.26895   1.00
C3       -0.04252   0.75950    0.28396   1.00
C3       0.04262    0.72081    0.23075   1.00
C3       -0.04259   0.74001    0.21647   1.00
C2       0.10518    0.75009    0.25013   1.00
C2       -0.10518   0.75009    0.25013   1.00
C3a      0.08401    0.77985    0.26920   1.00
C3       -0.08382   0.75966    0.28384   1.00
C3       0.08389    0.72076    0.23097   1.00
C3a      -0.08403   0.74013    0.21623   1.00
H1       0.02706    0.80317    0.28357   1.00
H1       -0.02750   0.76678    0.31078   1.00
C5       0.10590    0.81187    0.28977   1.00
H1       -0.09933   0.76731    0.31028   1.00
H1       0.09944    0.69749    0.21632   1.00
C5       -0.10535   0.72950    0.17933   1.00
H1       -0.02747   0.73335    0.18956   1.00
H1       0.02770    0.69707    0.21621   1.00
H2       -0.09837   0.69872    0.17185   1.00
H2       -0.13747   0.73128    0.18348   1.00
N1       -0.09395   0.75546    0.14742   1.00
C6       -0.05810   0.75863    0.13167   1.00
C6       -0.11757   0.78028    0.12818   1.00
C6       -0.05873   0.78594    0.10212   1.00
C6       -0.09656   0.79971    0.09990   1.00
H3       -0.03281   0.74212    0.14097   1.00
H3       -0.14831   0.78419    0.13436   1.00
H3       -0.03436   0.79480    0.08414   1.00
H3       -0.10758   0.82146    0.07990   1.00
H2       0.13772    0.80625    0.28705   1.00
H2       0.09999    0.84069    0.27617   1.00
N1       0.09477    0.81337    0.33085   1.00
C6       0.11922    0.80768    0.36378   1.00
C6       0.05715    0.82111    0.34638   1.00
C6       0.09723    0.81175    0.39729   1.00
C6       0.05909    0.81998    0.38660   1.00
H3       0.15008    0.80111    0.36253   1.00
H3       0.03124    0.82657    0.32915   1.00
H3       0.10795    0.80891    0.42682   1.00
H3       0.03495    0.82462    0.40636   1.00
C4       0.47915    0.75031    0.25022   1.00
C4       0.52085    0.74969    0.24978   1.00
C3       0.45751    0.77982    0.23105   1.00
C3       0.54252    0.75950    0.21604   1.00
C3       0.45738    0.72081    0.26925   1.00
C3       0.54259    0.74001    0.28353   1.00
C2       0.39482    0.75009    0.24987   1.00
C2       0.60518    0.75009    0.24987   1.00
C3a      0.41599    0.77985    0.23080   1.00
C3       0.58382    0.75966    0.21616   1.00
C3       0.41611    0.72076    0.26903   1.00
C3a      0.58403    0.74013    0.28377   1.00
H1       0.47294    0.80317    0.21643   1.00
H1       0.52750    0.76678    0.18922   1.00
C5       0.39410    0.81187    0.21023   1.00
H1       0.59933    0.76731    0.18972   1.00
H1       0.40056    0.69749    0.28368   1.00
C5       0.60535    0.72950    0.32067   1.00
H1       0.52747    0.73335    0.31044   1.00
H1       0.47230    0.69707    0.28379   1.00
H2       0.59837    0.69872    0.32815   1.00
H2       0.63747    0.73128    0.31652   1.00
N1       0.59395    0.75546    0.35258   1.00
C6       0.55810    0.75863    0.36833   1.00
C6       0.61757    0.78028    0.37182   1.00
C6       0.55873    0.78594    0.39788   1.00
C6       0.59656    0.79971    0.40010   1.00
H3       0.53281    0.74212    0.35903   1.00
H3       0.64831    0.78419    0.36564   1.00
H3       0.53436    0.79480    0.41586   1.00
H3       0.60758    0.82146    0.42010   1.00
H2       0.36228    0.80625    0.21295   1.00
H2       0.40001    0.84069    0.22383   1.00
N1       0.40523    0.81337    0.16915   1.00
C6       0.38078    0.80768    0.13622   1.00
C6       0.44285    0.82111    0.15362   1.00
C6       0.40277    0.81175    0.10271   1.00
C6       0.44091    0.81998    0.11340   1.00
H3       0.34992    0.80111    0.13747   1.00
H3       0.46876    0.82657    0.17085   1.00
H3       0.39205    0.80891    0.07318   1.00
H3       0.46505    0.82462    0.09364   1.00
C4       0.24978    0.52085    0.25031   1.00
C4       0.25022    0.47915    0.24969   1.00
C3       0.26895    0.54249    0.27982   1.00
C3       0.28396    0.45748    0.25950   1.00
C3       0.23075    0.54262    0.22081   1.00
C3       0.21647    0.45741    0.24001   1.00
C2       0.25013    0.60518    0.25009   1.00
C2       0.25013    0.39482    0.25009   1.00
C3a      0.26920    0.58401    0.27985   1.00
C3       0.28384    0.41618    0.25966   1.00
C3       0.23097    0.58389    0.22076   1.00
C3a      0.21623    0.41597    0.24013   1.00
H1       0.28357    0.52706    0.30317   1.00
H1       0.31078    0.47250    0.26678   1.00
C5       0.28977    0.60590    0.31187   1.00
H1       0.31028    0.40067    0.26731   1.00
H1       0.21632    0.59944    0.19749   1.00
C5       0.17933    0.39465    0.22950   1.00
H1       0.18956    0.47253    0.23335   1.00
H1       0.21621    0.52770    0.19707   1.00
H2       0.17185    0.40163    0.19872   1.00
H2       0.18348    0.36253    0.23128   1.00
N1       0.14742    0.40605    0.25546   1.00
C6       0.13167    0.44190    0.25863   1.00
C6       0.12818    0.38243    0.28028   1.00
C6       0.10212    0.44127    0.28594   1.00
C6       0.09990    0.40344    0.29971   1.00
H3       0.14097    0.46719    0.24212   1.00
H3       0.13436    0.35169    0.28419   1.00
H3       0.08414    0.46564    0.29480   1.00
H3       0.07990    0.39242    0.32146   1.00
H2       0.28705    0.63772    0.30625   1.00
H2       0.27617    0.59999    0.34069   1.00
N1       0.33085    0.59477    0.31337   1.00
C6       0.36378    0.61922    0.30768   1.00
C6       0.34638    0.55715    0.32111   1.00
C6       0.39729    0.59723    0.31175   1.00
C6       0.38660    0.55909    0.31998   1.00
H3       0.36253    0.65008    0.30111   1.00
H3       0.32915    0.53124    0.32657   1.00
H3       0.42682    0.60795    0.30891   1.00
H3       0.40636    0.53495    0.32462   1.00
C4       0.25031    0.74978    0.02085   1.00
C4       0.24969    0.75022    -0.02085   1.00
C3       0.27982    0.76895    0.04249   1.00
C3       0.25950    0.78396    -0.04252   1.00
C3       0.22081    0.73075    0.04262   1.00
C3       0.24001    0.71647    -0.04259   1.00
C2       0.25009    0.75013    0.10518   1.00
C2       0.25009    0.75013    -0.10518   1.00
C3a      0.27985    0.76920    0.08401   1.00
C3       0.25966    0.78384    -0.08382   1.00
C3       0.22076    0.73097    0.08389   1.00
C3a      0.24013    0.71623    -0.08403   1.00
H1       0.30317    0.78357    0.02706   1.00
H1       0.26678    0.81078    -0.02750   1.00
C5       0.31187    0.78977    0.10590   1.00
H1       0.26731    0.81028    -0.09933   1.00
H1       0.19749    0.71632    0.09944   1.00
C5       0.22950    0.67933    -0.10535   1.00
H1       0.23335    0.68956    -0.02747   1.00
H1       0.19707    0.71621    0.02770   1.00
H2       0.19872    0.67185    -0.09837   1.00
H2       0.23128    0.68348    -0.13747   1.00
N1       0.25546    0.64742    -0.09395   1.00
C6       0.25863    0.63167    -0.05810   1.00
C6       0.28028    0.62818    -0.11757   1.00
C6       0.28594    0.60212    -0.05873   1.00
C6       0.29971    0.59990    -0.09656   1.00
H3       0.24212    0.64097    -0.03281   1.00
H3       0.28419    0.63436    -0.14831   1.00
H3       0.29480    0.58414    -0.03436   1.00
H3       0.32146    0.57990    -0.10758   1.00
H2       0.30625    0.78705    0.13772   1.00
H2       0.34069    0.77617    0.09999   1.00
N1       0.31337    0.83085    0.09477   1.00
C6       0.30768    0.86378    0.11922   1.00
C6       0.32111    0.84638    0.05715   1.00
C6       0.31175    0.89729    0.09723   1.00
C6       0.31998    0.88660    0.05909   1.00
H3       0.30111    0.86253    0.15008   1.00
H3       0.32657    0.82915    0.03124   1.00
H3       0.30891    0.92682    0.10795   1.00
H3       0.32462    0.90636    0.03495   1.00
C4       0.75031    0.25022    0.47915   1.00
C4       0.74969    0.24978    0.52085   1.00
C3       0.77982    0.23105    0.45751   1.00
C3       0.75950    0.21604    0.54252   1.00
C3       0.72081    0.26925    0.45738   1.00
C3       0.74001    0.28353    0.54259   1.00
C2       0.75009    0.24987    0.39482   1.00
C2       0.75009    0.24987    0.60518   1.00
C3a      0.77985    0.23080    0.41599   1.00
C3       0.75966    0.21616    0.58382   1.00
C3       0.72076    0.26903    0.41611   1.00
C3a      0.74013    0.28377    0.58403   1.00
H1       0.80317    0.21643    0.47294   1.00
H1       0.76678    0.18922    0.52750   1.00
C5       0.81187    0.21023    0.39410   1.00
H1       0.76731    0.18972    0.59933   1.00
H1       0.69749    0.28368    0.40056   1.00
C5       0.72950    0.32067    0.60535   1.00
H1       0.73335    0.31044    0.52747   1.00
H1       0.69707    0.28379    0.47230   1.00
H2       0.69872    0.32815    0.59837   1.00
H2       0.73128    0.31652    0.63747   1.00
N1       0.75546    0.35258    0.59395   1.00
C6       0.75863    0.36833    0.55810   1.00
C6       0.78028    0.37182    0.61757   1.00
C6       0.78594    0.39788    0.55873   1.00
C6       0.79971    0.40010    0.59656   1.00
H3       0.74212    0.35903    0.53281   1.00
H3       0.78419    0.36564    0.64831   1.00
H3       0.79480    0.41586    0.53436   1.00
H3       0.82146    0.42010    0.60758   1.00
H2       0.80625    0.21295    0.36228   1.00
H2       0.84069    0.22383    0.40001   1.00
N1       0.81337    0.16915    0.40523   1.00
C6       0.80768    0.13622    0.38078   1.00
C6       0.82111    0.15362    0.44285   1.00
C6       0.81175    0.10271    0.40277   1.00
C6       0.81998    0.11340    0.44091   1.00
H3       0.80111    0.13747    0.34992   1.00
H3       0.82657    0.17085    0.46876   1.00
H3       0.80891    0.07318    0.39205   1.00
H3       0.82462    0.09364    0.46505   1.00
C4       0.75022    0.47915    0.25031   1.00
C4       0.74978    0.52085    0.24969   1.00
C3       0.73105    0.45751    0.27982   1.00
C3       0.71604    0.54252    0.25950   1.00
C3       0.76925    0.45738    0.22081   1.00
C3       0.78353    0.54259    0.24001   1.00
C2       0.74987    0.39482    0.25009   1.00
C2       0.74987    0.60518    0.25009   1.00
C3a      0.73080    0.41599    0.27985   1.00
C3       0.71616    0.58382    0.25966   1.00
C3       0.76903    0.41611    0.22076   1.00
C3a      0.78377    0.58403    0.24013   1.00
H1       0.71643    0.47294    0.30317   1.00
H1       0.68922    0.52750    0.26678   1.00
C5       0.71023    0.39410    0.31187   1.00
H1       0.68972    0.59933    0.26731   1.00
H1       0.78368    0.40056    0.19749   1.00
C5       0.82067    0.60535    0.22950   1.00
H1       0.81044    0.52747    0.23335   1.00
H1       0.78379    0.47230    0.19707   1.00
H2       0.82815    0.59837    0.19872   1.00
H2       0.81652    0.63747    0.23128   1.00
N1       0.85258    0.59395    0.25546   1.00
C6       0.86833    0.55810    0.25863   1.00
C6       0.87182    0.61757    0.28028   1.00
C6       0.89788    0.55873    0.28594   1.00
C6       0.90010    0.59656    0.29971   1.00
H3       0.85903    0.53281    0.24212   1.00
H3       0.86564    0.64831    0.28419   1.00
H3       0.91586    0.53436    0.29480   1.00
H3       0.92010    0.60758    0.32146   1.00
H2       0.71295    0.36228    0.30625   1.00
H2       0.72383    0.40001    0.34069   1.00
N1       0.66915    0.40523    0.31337   1.00
C6       0.63622    0.38078    0.30768   1.00
C6       0.65362    0.44285    0.32111   1.00
C6       0.60271    0.40277    0.31175   1.00
C6       0.61340    0.44091    0.31998   1.00
H3       0.63747    0.34992    0.30111   1.00
H3       0.67085    0.46876    0.32657   1.00
H3       0.57318    0.39205    0.30891   1.00
H3       0.59364    0.46505    0.32462   1.00
C4       0.52085    0.25031    0.24978   1.00
C4       0.47915    0.24969    0.25022   1.00
C3       0.54249    0.27982    0.26895   1.00
C3       0.45748    0.25950    0.28396   1.00
C3       0.54262    0.22081    0.23075   1.00
C3       0.45741    0.24001    0.21647   1.00
C2       0.60518    0.25009    0.25013   1.00
C2       0.39482    0.25009    0.25013   1.00
C3a      0.58401    0.27985    0.26920   1.00
C3       0.41618    0.25966    0.28384   1.00
C3       0.58389    0.22076    0.23097   1.00
C3a      0.41597    0.24013    0.21623   1.00
H1       0.52706    0.30317    0.28357   1.00
H1       0.47250    0.26678    0.31078   1.00
C5       0.60590    0.31187    0.28977   1.00
H1       0.40067    0.26731    0.31028   1.00
H1       0.59944    0.19749    0.21632   1.00
C5       0.39465    0.22950    0.17933   1.00
H1       0.47253    0.23335    0.18956   1.00
H1       0.52770    0.19707    0.21621   1.00
H2       0.40163    0.19872    0.17185   1.00
H2       0.36253    0.23128    0.18348   1.00
N1       0.40605    0.25546    0.14742   1.00
C6       0.44190    0.25863    0.13167   1.00
C6       0.38243    0.28028    0.12818   1.00
C6       0.44127    0.28594    0.10212   1.00
C6       0.40344    0.29971    0.09990   1.00
H3       0.46719    0.24212    0.14097   1.00
H3       0.35169    0.28419    0.13436   1.00
H3       0.46564    0.29480    0.08414   1.00
H3       0.39242    0.32146    0.07990   1.00
H2       0.63772    0.30625    0.28705   1.00
H2       0.59999    0.34069    0.27617   1.00
N1       0.59477    0.31337    0.33085   1.00
C6       0.61922    0.30768    0.36378   1.00
C6       0.55715    0.32111    0.34638   1.00
C6       0.59723    0.31175    0.39729   1.00
C6       0.55909    0.31998    0.38660   1.00
H3       0.65008    0.30111    0.36253   1.00
H3       0.53124    0.32657    0.32915   1.00
H3       0.60795    0.30891    0.42682   1.00
H3       0.53495    0.32462    0.40636   1.00
C4       0.97915    0.25031    0.25022   1.00
C4       1.02085    0.24969    0.24978   1.00
C3       0.95751    0.27982    0.23105   1.00
C3       1.04252    0.25950    0.21604   1.00
C3       0.95738    0.22081    0.26925   1.00
C3       1.04259    0.24001    0.28353   1.00
C2       0.89482    0.25009    0.24987   1.00
C2       1.10518    0.25009    0.24987   1.00
C3a      0.91599    0.27985    0.23080   1.00
C3       1.08382    0.25966    0.21616   1.00
C3       0.91611    0.22076    0.26903   1.00
C3a      1.08403    0.24013    0.28377   1.00
H1       0.97294    0.30317    0.21643   1.00
H1       1.02750    0.26678    0.18922   1.00
C5       0.89410    0.31187    0.21023   1.00
H1       1.09933    0.26731    0.18972   1.00
H1       0.90056    0.19749    0.28368   1.00
C5       1.10535    0.22950    0.32067   1.00
H1       1.02747    0.23335    0.31044   1.00
H1       0.97230    0.19707    0.28379   1.00
H2       1.09837    0.19872    0.32815   1.00
H2       1.13747    0.23128    0.31652   1.00
N1       1.09395    0.25546    0.35258   1.00
C6       1.05810    0.25863    0.36833   1.00
C6       1.11757    0.28028    0.37182   1.00
C6       1.05873    0.28594    0.39788   1.00
C6       1.09656    0.29971    0.40010   1.00
H3       1.03281    0.24212    0.35903   1.00
H3       1.14831    0.28419    0.36564   1.00
H3       1.03436    0.29480    0.41586   1.00
H3       1.10758    0.32146    0.42010   1.00
H2       0.86228    0.30625    0.21295   1.00
H2       0.90001    0.34069    0.22383   1.00
N1       0.90523    0.31337    0.16915   1.00
C6       0.88078    0.30768    0.13622   1.00
C6       0.94285    0.32111    0.15362   1.00
C6       0.90277    0.31175    0.10271   1.00
C6       0.94091    0.31998    0.11340   1.00
H3       0.84992    0.30111    0.13747   1.00
H3       0.96876    0.32657    0.17085   1.00
H3       0.89205    0.30891    0.07318   1.00
H3       0.96505    0.32462    0.09364   1.00
C4       0.74978    0.02085    0.25031   1.00
C4       0.75022    -0.02085   0.24969   1.00
C3       0.76895    0.04249    0.27982   1.00
C3       0.78396    -0.04252   0.25950   1.00
C3       0.73075    0.04262    0.22081   1.00
C3       0.71647    -0.04259   0.24001   1.00
C2       0.75013    0.10518    0.25009   1.00
C2       0.75013    -0.10518   0.25009   1.00
C3a      0.76920    0.08401    0.27985   1.00
C3       0.78384    -0.08382   0.25966   1.00
C3       0.73097    0.08389    0.22076   1.00
C3a      0.71623    -0.08403   0.24013   1.00
H1       0.78357    0.02706    0.30317   1.00
H1       0.81078    -0.02750   0.26678   1.00
C5       0.78977    0.10590    0.31187   1.00
H1       0.81028    -0.09933   0.26731   1.00
H1       0.71632    0.09944    0.19749   1.00
C5       0.67933    -0.10535   0.22950   1.00
H1       0.68956    -0.02747   0.23335   1.00
H1       0.71621    0.02770    0.19707   1.00
H2       0.67185    -0.09837   0.19872   1.00
H2       0.68348    -0.13747   0.23128   1.00
N1       0.64742    -0.09395   0.25546   1.00
C6       0.63167    -0.05810   0.25863   1.00
C6       0.62818    -0.11757   0.28028   1.00
C6       0.60212    -0.05873   0.28594   1.00
C6       0.59990    -0.09656   0.29971   1.00
H3       0.64097    -0.03281   0.24212   1.00
H3       0.63436    -0.14831   0.28419   1.00
H3       0.58414    -0.03436   0.29480   1.00
H3       0.57990    -0.10758   0.32146   1.00
H2       0.78705    0.13772    0.30625   1.00
H2       0.77617    0.09999    0.34069   1.00
N1       0.83085    0.09477    0.31337   1.00
C6       0.86378    0.11922    0.30768   1.00
C6       0.84638    0.05715    0.32111   1.00
C6       0.89729    0.09723    0.31175   1.00
C6       0.88660    0.05909    0.31998   1.00
H3       0.86253    0.15008    0.30111   1.00
H3       0.82915    0.03124    0.32657   1.00
H3       0.92682    0.10795    0.30891   1.00
H3       0.90636    0.03495    0.32462   1.00
C4       0.75031    0.24978    0.02085   1.00
C4       0.74969    0.25022    -0.02085   1.00
C3       0.77982    0.26895    0.04249   1.00
C3       0.75950    0.28396    -0.04252   1.00
C3       0.72081    0.23075    0.04262   1.00
C3       0.74001    0.21647    -0.04259   1.00
C2       0.75009    0.25013    0.10518   1.00
C2       0.75009    0.25013    -0.10518   1.00
C3a      0.77985    0.26920    0.08401   1.00
C3       0.75966    0.28384    -0.08382   1.00
C3       0.72076    0.23097    0.08389   1.00
C3a      0.74013    0.21623    -0.08403   1.00
H1       0.80317    0.28357    0.02706   1.00
H1       0.76678    0.31078    -0.02750   1.00
C5       0.81187    0.28977    0.10590   1.00
H1       0.76731    0.31028    -0.09933   1.00
H1       0.69749    0.21632    0.09944   1.00
C5       0.72950    0.17933    -0.10535   1.00
H1       0.73335    0.18956    -0.02747   1.00
H1       0.69707    0.21621    0.02770   1.00
H2       0.69872    0.17185    -0.09837   1.00
H2       0.73128    0.18348    -0.13747   1.00
N1       0.75546    0.14742    -0.09395   1.00
C6       0.75863    0.13167    -0.05810   1.00
C6       0.78028    0.12818    -0.11757   1.00
C6       0.78594    0.10212    -0.05873   1.00
C6       0.79971    0.09990    -0.09656   1.00
H3       0.74212    0.14097    -0.03281   1.00
H3       0.78419    0.13436    -0.14831   1.00
H3       0.79480    0.08414    -0.03436   1.00
H3       0.82146    0.07990    -0.10758   1.00
H2       0.80625    0.28705    0.13772   1.00
H2       0.84069    0.27617    0.09999   1.00
N1       0.81337    0.33085    0.09477   1.00
C6       0.80768    0.36378    0.11922   1.00
C6       0.82111    0.34638    0.05715   1.00
C6       0.81175    0.39729    0.09723   1.00
C6       0.81998    0.38660    0.05909   1.00
H3       0.80111    0.36253    0.15008   1.00
H3       0.82657    0.32915    0.03124   1.00
H3       0.80891    0.42682    0.10795   1.00
H3       0.82462    0.40636    0.03495   1.00
