data_IRMOF10_SG202_Ligand5_label_a.

_audit_creation_method             'generated by an auxiliary program of Tobunporous'

_symmetry_space_group_name_H-M     'P 1'
_symmetry_Int_Tables_number        1
_symmetry_cell_setting             triclinic

_cell_length_a                    34.2800
_cell_length_b                    34.2800
_cell_length_c                    34.2800
_cell_angle_alpha                 90.0000
_cell_angle_beta                  90.0000
_cell_angle_gamma                 90.0000

loop_
_atom_site_label
_atom_site_fract_x
_atom_site_fract_y
_atom_site_fract_z
_atom_site_occupancy
O1       0.75000    0.75000    0.75000   1.00
Zn1      0.71720    0.78280    0.78280   1.00
Zn1      0.78280    0.71720    0.78280   1.00
Zn1      0.78280    0.78280    0.71720   1.00
Zn1      0.71720    0.71720    0.71720   1.00
O2       0.72650    0.77350    0.83820   1.00
O2       0.72650    0.83820    0.77350   1.00
O2       0.66180    0.77350    0.77350   1.00
O2       0.77350    0.72650    0.83820   1.00
O2       0.83820    0.72650    0.77350   1.00
O2       0.77350    0.66180    0.77350   1.00
O2       0.77350    0.83820    0.72650   1.00
O2       0.83820    0.77350    0.72650   1.00
O2       0.77350    0.77350    0.66180   1.00
O2       0.66180    0.72650    0.72650   1.00
O2       0.72650    0.66180    0.72650   1.00
O2       0.72650    0.72650    0.66180   1.00
C1       0.75000    0.75000    0.85520   1.00
C1       0.75000    0.85520    0.75000   1.00
C1       0.64480    0.75000    0.75000   1.00
C1       0.85520    0.75000    0.75000   1.00
C1       0.75000    0.64480    0.75000   1.00
C1       0.75000    0.75000    0.64480   1.00
O1       0.25000    0.25000    0.75000   1.00
Zn1      0.21720    0.28280    0.78280   1.00
Zn1      0.28280    0.21720    0.78280   1.00
Zn1      0.28280    0.28280    0.71720   1.00
Zn1      0.21720    0.21720    0.71720   1.00
O2       0.22650    0.27350    0.83820   1.00
O2       0.22650    0.33820    0.77350   1.00
O2       0.16180    0.27350    0.77350   1.00
O2       0.27350    0.22650    0.83820   1.00
O2       0.33820    0.22650    0.77350   1.00
O2       0.27350    0.16180    0.77350   1.00
O2       0.27350    0.33820    0.72650   1.00
O2       0.33820    0.27350    0.72650   1.00
O2       0.27350    0.27350    0.66180   1.00
O2       0.16180    0.22650    0.72650   1.00
O2       0.22650    0.16180    0.72650   1.00
O2       0.22650    0.22650    0.66180   1.00
C1       0.25000    0.25000    0.85520   1.00
C1       0.25000    0.35520    0.75000   1.00
C1       0.14480    0.25000    0.75000   1.00
C1       0.35520    0.25000    0.75000   1.00
C1       0.25000    0.14480    0.75000   1.00
C1       0.25000    0.25000    0.64480   1.00
O1       0.25000    0.75000    0.25000   1.00
Zn1      0.21720    0.78280    0.28280   1.00
Zn1      0.28280    0.71720    0.28280   1.00
Zn1      0.28280    0.78280    0.21720   1.00
Zn1      0.21720    0.71720    0.21720   1.00
O2       0.22650    0.77350    0.33820   1.00
O2       0.22650    0.83820    0.27350   1.00
O2       0.16180    0.77350    0.27350   1.00
O2       0.27350    0.72650    0.33820   1.00
O2       0.33820    0.72650    0.27350   1.00
O2       0.27350    0.66180    0.27350   1.00
O2       0.27350    0.83820    0.22650   1.00
O2       0.33820    0.77350    0.22650   1.00
O2       0.27350    0.77350    0.16180   1.00
O2       0.16180    0.72650    0.22650   1.00
O2       0.22650    0.66180    0.22650   1.00
O2       0.22650    0.72650    0.16180   1.00
C1       0.25000    0.75000    0.35520   1.00
C1       0.25000    0.85520    0.25000   1.00
C1       0.14480    0.75000    0.25000   1.00
C1       0.35520    0.75000    0.25000   1.00
C1       0.25000    0.64480    0.25000   1.00
C1       0.25000    0.75000    0.14480   1.00
O1       0.75000    0.25000    0.25000   1.00
Zn1      0.71720    0.28280    0.28280   1.00
Zn1      0.78280    0.21720    0.28280   1.00
Zn1      0.78280    0.28280    0.21720   1.00
Zn1      0.71720    0.21720    0.21720   1.00
O2       0.72650    0.27350    0.33820   1.00
O2       0.72650    0.33820    0.27350   1.00
O2       0.66180    0.27350    0.27350   1.00
O2       0.77350    0.22650    0.33820   1.00
O2       0.83820    0.22650    0.27350   1.00
O2       0.77350    0.16180    0.27350   1.00
O2       0.77350    0.33820    0.22650   1.00
O2       0.83820    0.27350    0.22650   1.00
O2       0.77350    0.27350    0.16180   1.00
O2       0.66180    0.22650    0.22650   1.00
O2       0.72650    0.16180    0.22650   1.00
O2       0.72650    0.22650    0.16180   1.00
C1       0.75000    0.25000    0.35520   1.00
C1       0.75000    0.35520    0.25000   1.00
C1       0.64480    0.25000    0.25000   1.00
C1       0.85520    0.25000    0.25000   1.00
C1       0.75000    0.14480    0.25000   1.00
C1       0.75000    0.25000    0.14480   1.00
O1       0.25000    0.25000    0.25000   1.00
Zn1      0.28280    0.21720    0.21720   1.00
Zn1      0.21720    0.28280    0.21720   1.00
Zn1      0.21720    0.21720    0.28280   1.00
Zn1      0.28280    0.28280    0.28280   1.00
O2       0.27350    0.22650    0.16180   1.00
O2       0.27350    0.16180    0.22650   1.00
O2       0.33820    0.22650    0.22650   1.00
O2       0.22650    0.27350    0.16180   1.00
O2       0.16180    0.27350    0.22650   1.00
O2       0.22650    0.33820    0.22650   1.00
O2       0.22650    0.16180    0.27350   1.00
O2       0.16180    0.22650    0.27350   1.00
O2       0.22650    0.22650    0.33820   1.00
O2       0.33820    0.27350    0.27350   1.00
O2       0.27350    0.33820    0.27350   1.00
O2       0.27350    0.27350    0.33820   1.00
C1       0.25000    0.25000    0.14480   1.00
C1       0.25000    0.14480    0.25000   1.00
C1       0.35520    0.25000    0.25000   1.00
C1       0.14480    0.25000    0.25000   1.00
C1       0.25000    0.35520    0.25000   1.00
C1       0.25000    0.25000    0.35520   1.00
O1       0.75000    0.75000    0.25000   1.00
Zn1      0.78280    0.71720    0.21720   1.00
Zn1      0.71720    0.78280    0.21720   1.00
Zn1      0.71720    0.71720    0.28280   1.00
Zn1      0.78280    0.78280    0.28280   1.00
O2       0.77350    0.72650    0.16180   1.00
O2       0.77350    0.66180    0.22650   1.00
O2       0.83820    0.72650    0.22650   1.00
O2       0.72650    0.77350    0.16180   1.00
O2       0.66180    0.77350    0.22650   1.00
O2       0.72650    0.83820    0.22650   1.00
O2       0.72650    0.66180    0.27350   1.00
O2       0.66180    0.72650    0.27350   1.00
O2       0.72650    0.72650    0.33820   1.00
O2       0.83820    0.77350    0.27350   1.00
O2       0.77350    0.83820    0.27350   1.00
O2       0.77350    0.77350    0.33820   1.00
C1       0.75000    0.75000    0.14480   1.00
C1       0.75000    0.64480    0.25000   1.00
C1       0.85520    0.75000    0.25000   1.00
C1       0.64480    0.75000    0.25000   1.00
C1       0.75000    0.85520    0.25000   1.00
C1       0.75000    0.75000    0.35520   1.00
O1       0.75000    0.25000    0.75000   1.00
Zn1      0.78280    0.21720    0.71720   1.00
Zn1      0.71720    0.28280    0.71720   1.00
Zn1      0.71720    0.21720    0.78280   1.00
Zn1      0.78280    0.28280    0.78280   1.00
O2       0.77350    0.22650    0.66180   1.00
O2       0.77350    0.16180    0.72650   1.00
O2       0.83820    0.22650    0.72650   1.00
O2       0.72650    0.27350    0.66180   1.00
O2       0.66180    0.27350    0.72650   1.00
O2       0.72650    0.33820    0.72650   1.00
O2       0.72650    0.16180    0.77350   1.00
O2       0.66180    0.22650    0.77350   1.00
O2       0.72650    0.22650    0.83820   1.00
O2       0.83820    0.27350    0.77350   1.00
O2       0.77350    0.33820    0.77350   1.00
O2       0.77350    0.27350    0.83820   1.00
C1       0.75000    0.25000    0.64480   1.00
C1       0.75000    0.14480    0.75000   1.00
C1       0.85520    0.25000    0.75000   1.00
C1       0.64480    0.25000    0.75000   1.00
C1       0.75000    0.35520    0.75000   1.00
C1       0.75000    0.25000    0.85520   1.00
O1       0.25000    0.75000    0.75000   1.00
Zn1      0.28280    0.71720    0.71720   1.00
Zn1      0.21720    0.78280    0.71720   1.00
Zn1      0.21720    0.71720    0.78280   1.00
Zn1      0.28280    0.78280    0.78280   1.00
O2       0.27350    0.72650    0.66180   1.00
O2       0.27350    0.66180    0.72650   1.00
O2       0.33820    0.72650    0.72650   1.00
O2       0.22650    0.77350    0.66180   1.00
O2       0.16180    0.77350    0.72650   1.00
O2       0.22650    0.83820    0.72650   1.00
O2       0.22650    0.66180    0.77350   1.00
O2       0.16180    0.72650    0.77350   1.00
O2       0.22650    0.72650    0.83820   1.00
O2       0.33820    0.77350    0.77350   1.00
O2       0.27350    0.83820    0.77350   1.00
O2       0.27350    0.77350    0.83820   1.00
C1       0.25000    0.75000    0.64480   1.00
C1       0.25000    0.64480    0.75000   1.00
C1       0.35520    0.75000    0.75000   1.00
C1       0.14480    0.75000    0.75000   1.00
C1       0.25000    0.85520    0.75000   1.00
C1       0.25000    0.75000    0.85520   1.00
C5       0.67260    0.85070    1.13227   1.00
H2       0.65734    0.82654    1.14755   1.00
H2       0.65124    0.86261    1.11099   1.00
C5       0.68437    0.88241    1.16219   1.00
H2       0.65921    0.90185    1.16890   1.00
H2       0.70876    0.90033    1.15040   1.00
O_3      0.79790    0.80207    0.98000   1.00
C4       0.74981    0.74960    1.02100   1.00
C3c      0.72368    0.77277    1.04243   1.00
H1       0.70292    0.79103    1.02725   1.00
C3d      0.77625    0.72559    1.04135   1.00
C3       0.72422    0.77323    1.08354   1.00
O2       0.69476    0.79288    1.10248   1.00
C3       0.77737    0.72654    1.08227   1.00
H1       0.79908    0.70868    1.09657   1.00
C2       0.75143    0.75013    1.10439   1.00
C5       0.83725    0.78992    0.97879   1.00
H2       0.84868    0.78825    0.94838   1.00
H2       0.84093    0.76068    0.99266   1.00
C5       0.86121    0.81973    1.00122   1.00
H2       0.84910    0.82220    1.03129   1.00
H2       0.85762    0.84872    0.98691   1.00
C5       0.90437    0.80798    1.00254   1.00
H2       0.91658    0.80518    0.97260   1.00
H2       0.90813    0.77968    1.01803   1.00
H2       0.92155    0.83054    1.01830   1.00
C5       0.78925    0.66777    1.01105   1.00
C5       0.70670    0.83151    1.11070   1.00
H2       0.76402    0.67089    0.99088   1.00
H2       0.77973    0.65075    1.03712   1.00
H2       0.71294    0.84745    1.08300   1.00
H2       0.73375    0.83262    1.12895   1.00
H2       0.69351    0.86911    1.19055   1.00
H2       0.78749    0.61875    0.94250   1.00
H2       0.78783    0.59092    0.98766   1.00
C2       0.75256    0.75024    0.89605   1.00
C3       0.72669    0.72511    0.91597   1.00
O2       0.70948    0.69422    0.89674   1.00
C3       0.77577    0.77618    0.91826   1.00
H1       0.79512    0.79648    0.90385   1.00
C3a      0.72533    0.72571    0.95713   1.00
H1       0.70702    0.70476    0.97202   1.00
C3b      0.77525    0.77583    0.95922   1.00
C4       0.74997    0.75042    0.97900   1.00
O_3      0.80452    0.70450    1.02167   1.00
C5       0.67048    0.70332    0.88720   1.00
H2       0.65299    0.70986    0.91391   1.00
C5       0.65334    0.66755    0.86666   1.00
H2       0.66905    0.72898    0.86726   1.00
H2       0.64512    0.64567    0.88923   1.00
H2       0.67711    0.65415    0.84899   1.00
C5       0.61796    0.67750    0.84069   1.00
H2       0.59585    0.69359    0.85811   1.00
H2       0.60434    0.65045    0.82891   1.00
H2       0.62678    0.69550    0.81494   1.00
C5       0.82148    0.64541    0.99020   1.00
H2       0.84369    0.63646    1.01218   1.00
H2       0.83625    0.66572    0.96955   1.00
C5       0.80560    0.60971    0.96803   1.00
H2       0.83020    0.59191    0.95666   1.00
C5       0.85070    1.13227    0.67260   1.00
H2       0.82654    1.14755    0.65734   1.00
H2       0.86261    1.11099    0.65124   1.00
C5       0.88241    1.16219    0.68437   1.00
H2       0.90185    1.16890    0.65921   1.00
H2       0.90033    1.15040    0.70876   1.00
O_3      0.80207    0.98000    0.79790   1.00
C4       0.74960    1.02100    0.74981   1.00
C3c      0.77277    1.04243    0.72368   1.00
H1       0.79103    1.02725    0.70292   1.00
C3d      0.72559    1.04135    0.77625   1.00
C3       0.77323    1.08354    0.72422   1.00
O2       0.79288    1.10248    0.69476   1.00
C3       0.72654    1.08227    0.77737   1.00
H1       0.70868    1.09657    0.79908   1.00
C2       0.75013    1.10439    0.75143   1.00
C5       0.78992    0.97879    0.83725   1.00
H2       0.78825    0.94838    0.84868   1.00
H2       0.76068    0.99266    0.84093   1.00
C5       0.81973    1.00122    0.86121   1.00
H2       0.82220    1.03129    0.84910   1.00
H2       0.84872    0.98691    0.85762   1.00
C5       0.80798    1.00254    0.90437   1.00
H2       0.80518    0.97260    0.91658   1.00
H2       0.77968    1.01803    0.90813   1.00
H2       0.83054    1.01830    0.92155   1.00
C5       0.66777    1.01105    0.78925   1.00
C5       0.83151    1.11070    0.70670   1.00
H2       0.67089    0.99088    0.76402   1.00
H2       0.65075    1.03712    0.77973   1.00
H2       0.84745    1.08300    0.71294   1.00
H2       0.83262    1.12895    0.73375   1.00
H2       0.86911    1.19055    0.69351   1.00
H2       0.61875    0.94250    0.78749   1.00
H2       0.59092    0.98766    0.78783   1.00
C2       0.75024    0.89605    0.75256   1.00
C3       0.72511    0.91597    0.72669   1.00
O2       0.69422    0.89674    0.70948   1.00
C3       0.77618    0.91826    0.77577   1.00
H1       0.79648    0.90385    0.79512   1.00
C3a      0.72571    0.95713    0.72533   1.00
H1       0.70476    0.97202    0.70702   1.00
C3b      0.77583    0.95922    0.77525   1.00
C4       0.75042    0.97900    0.74997   1.00
O_3      0.70450    1.02167    0.80452   1.00
C5       0.70332    0.88720    0.67048   1.00
H2       0.70986    0.91391    0.65299   1.00
C5       0.66755    0.86666    0.65334   1.00
H2       0.72898    0.86726    0.66905   1.00
H2       0.64567    0.88923    0.64512   1.00
H2       0.65415    0.84899    0.67711   1.00
C5       0.67750    0.84069    0.61796   1.00
H2       0.69359    0.85811    0.59585   1.00
H2       0.65045    0.82891    0.60434   1.00
H2       0.69550    0.81494    0.62678   1.00
C5       0.64541    0.99020    0.82148   1.00
H2       0.63646    1.01218    0.84369   1.00
H2       0.66572    0.96955    0.83625   1.00
C5       0.60971    0.96803    0.80560   1.00
H2       0.59191    0.95666    0.83020   1.00
C5       0.36773    0.67260    0.64930   1.00
H2       0.35245    0.65734    0.67346   1.00
H2       0.38901    0.65124    0.63739   1.00
C5       0.33781    0.68437    0.61759   1.00
H2       0.33110    0.65921    0.59815   1.00
H2       0.34960    0.70876    0.59967   1.00
O_3      0.52000    0.79790    0.69793   1.00
C4       0.47900    0.74981    0.75040   1.00
C3c      0.45757    0.72368    0.72723   1.00
H1       0.47275    0.70292    0.70897   1.00
C3d      0.45865    0.77625    0.77441   1.00
C3       0.41646    0.72422    0.72677   1.00
O2       0.39752    0.69476    0.70712   1.00
C3       0.41773    0.77737    0.77346   1.00
H1       0.40343    0.79908    0.79132   1.00
C2       0.39561    0.75143    0.74987   1.00
C5       0.52121    0.83725    0.71008   1.00
H2       0.55162    0.84868    0.71175   1.00
H2       0.50734    0.84093    0.73932   1.00
C5       0.49878    0.86121    0.68027   1.00
H2       0.46871    0.84910    0.67780   1.00
H2       0.51309    0.85762    0.65128   1.00
C5       0.49746    0.90437    0.69202   1.00
H2       0.52740    0.91658    0.69482   1.00
H2       0.48197    0.90813    0.72032   1.00
H2       0.48170    0.92155    0.66946   1.00
C5       0.48895    0.78925    0.83223   1.00
C5       0.38930    0.70670    0.66849   1.00
H2       0.50912    0.76402    0.82911   1.00
H2       0.46288    0.77973    0.84925   1.00
H2       0.41700    0.71294    0.65255   1.00
H2       0.37105    0.73375    0.66738   1.00
H2       0.30945    0.69351    0.63089   1.00
H2       0.55750    0.78749    0.88125   1.00
H2       0.51234    0.78783    0.90908   1.00
C2       0.60395    0.75256    0.74976   1.00
C3       0.58403    0.72669    0.77489   1.00
O2       0.60326    0.70948    0.80578   1.00
C3       0.58174    0.77577    0.72382   1.00
H1       0.59615    0.79512    0.70352   1.00
C3a      0.54287    0.72533    0.77429   1.00
H1       0.52798    0.70702    0.79524   1.00
C3b      0.54078    0.77525    0.72417   1.00
C4       0.52100    0.74997    0.74958   1.00
O_3      0.47833    0.80452    0.79550   1.00
C5       0.61280    0.67048    0.79668   1.00
H2       0.58609    0.65299    0.79014   1.00
C5       0.63334    0.65334    0.83245   1.00
H2       0.63274    0.66905    0.77102   1.00
H2       0.61077    0.64512    0.85433   1.00
H2       0.65101    0.67711    0.84585   1.00
C5       0.65931    0.61796    0.82250   1.00
H2       0.64189    0.59585    0.80641   1.00
H2       0.67109    0.60434    0.84955   1.00
H2       0.68506    0.62678    0.80450   1.00
C5       0.50980    0.82148    0.85459   1.00
H2       0.48782    0.84369    0.86354   1.00
H2       0.53045    0.83625    0.83428   1.00
C5       0.53197    0.80560    0.89029   1.00
H2       0.54334    0.83020    0.90809   1.00
C5       1.13227    0.67260    0.85070   1.00
H2       1.14755    0.65734    0.82654   1.00
H2       1.11099    0.65124    0.86261   1.00
C5       1.16219    0.68437    0.88241   1.00
H2       1.16890    0.65921    0.90185   1.00
H2       1.15040    0.70876    0.90033   1.00
O_3      0.98000    0.79790    0.80207   1.00
C4       1.02100    0.74981    0.74960   1.00
C3c      1.04243    0.72368    0.77277   1.00
H1       1.02725    0.70292    0.79103   1.00
C3d      1.04135    0.77625    0.72559   1.00
C3       1.08354    0.72422    0.77323   1.00
O2       1.10248    0.69476    0.79288   1.00
C3       1.08227    0.77737    0.72654   1.00
H1       1.09657    0.79908    0.70868   1.00
C2       1.10439    0.75143    0.75013   1.00
C5       0.97879    0.83725    0.78992   1.00
H2       0.94838    0.84868    0.78825   1.00
H2       0.99266    0.84093    0.76068   1.00
C5       1.00122    0.86121    0.81973   1.00
H2       1.03129    0.84910    0.82220   1.00
H2       0.98691    0.85762    0.84872   1.00
C5       1.00254    0.90437    0.80798   1.00
H2       0.97260    0.91658    0.80518   1.00
H2       1.01803    0.90813    0.77968   1.00
H2       1.01830    0.92155    0.83054   1.00
C5       1.01105    0.78925    0.66777   1.00
C5       1.11070    0.70670    0.83151   1.00
H2       0.99088    0.76402    0.67089   1.00
H2       1.03712    0.77973    0.65075   1.00
H2       1.08300    0.71294    0.84745   1.00
H2       1.12895    0.73375    0.83262   1.00
H2       1.19055    0.69351    0.86911   1.00
H2       0.94250    0.78749    0.61875   1.00
H2       0.98766    0.78783    0.59092   1.00
C2       0.89605    0.75256    0.75024   1.00
C3       0.91597    0.72669    0.72511   1.00
O2       0.89674    0.70948    0.69422   1.00
C3       0.91826    0.77577    0.77618   1.00
H1       0.90385    0.79512    0.79648   1.00
C3a      0.95713    0.72533    0.72571   1.00
H1       0.97202    0.70702    0.70476   1.00
C3b      0.95922    0.77525    0.77583   1.00
C4       0.97900    0.74997    0.75042   1.00
O_3      1.02167    0.80452    0.70450   1.00
C5       0.88720    0.67048    0.70332   1.00
H2       0.91391    0.65299    0.70986   1.00
C5       0.86666    0.65334    0.66755   1.00
H2       0.86726    0.66905    0.72898   1.00
H2       0.88923    0.64512    0.64567   1.00
H2       0.84899    0.67711    0.65415   1.00
C5       0.84069    0.61796    0.67750   1.00
H2       0.85811    0.59585    0.69359   1.00
H2       0.82891    0.60434    0.65045   1.00
H2       0.81494    0.62678    0.69550   1.00
C5       0.99020    0.82148    0.64541   1.00
H2       1.01218    0.84369    0.63646   1.00
H2       0.96955    0.83625    0.66572   1.00
C5       0.96803    0.80560    0.60971   1.00
H2       0.95666    0.83020    0.59191   1.00
C5       0.64930    0.36773    0.67260   1.00
H2       0.67346    0.35245    0.65734   1.00
H2       0.63739    0.38901    0.65124   1.00
C5       0.61759    0.33781    0.68437   1.00
H2       0.59815    0.33110    0.65921   1.00
H2       0.59967    0.34960    0.70876   1.00
O_3      0.69793    0.52000    0.79790   1.00
C4       0.75040    0.47900    0.74981   1.00
C3c      0.72723    0.45757    0.72368   1.00
H1       0.70897    0.47275    0.70292   1.00
C3d      0.77441    0.45865    0.77625   1.00
C3       0.72677    0.41646    0.72422   1.00
O2       0.70712    0.39752    0.69476   1.00
C3       0.77346    0.41773    0.77737   1.00
H1       0.79132    0.40343    0.79908   1.00
C2       0.74987    0.39561    0.75143   1.00
C5       0.71008    0.52121    0.83725   1.00
H2       0.71175    0.55162    0.84868   1.00
H2       0.73932    0.50734    0.84093   1.00
C5       0.68027    0.49878    0.86121   1.00
H2       0.67780    0.46871    0.84910   1.00
H2       0.65128    0.51309    0.85762   1.00
C5       0.69202    0.49746    0.90437   1.00
H2       0.69482    0.52740    0.91658   1.00
H2       0.72032    0.48197    0.90813   1.00
H2       0.66946    0.48170    0.92155   1.00
C5       0.83223    0.48895    0.78925   1.00
C5       0.66849    0.38930    0.70670   1.00
H2       0.82911    0.50912    0.76402   1.00
H2       0.84925    0.46288    0.77973   1.00
H2       0.65255    0.41700    0.71294   1.00
H2       0.66738    0.37105    0.73375   1.00
H2       0.63089    0.30945    0.69351   1.00
H2       0.88125    0.55750    0.78749   1.00
H2       0.90908    0.51234    0.78783   1.00
C2       0.74976    0.60395    0.75256   1.00
C3       0.77489    0.58403    0.72669   1.00
O2       0.80578    0.60326    0.70948   1.00
C3       0.72382    0.58174    0.77577   1.00
H1       0.70352    0.59615    0.79512   1.00
C3a      0.77429    0.54287    0.72533   1.00
H1       0.79524    0.52798    0.70702   1.00
C3b      0.72417    0.54078    0.77525   1.00
C4       0.74958    0.52100    0.74997   1.00
O_3      0.79550    0.47833    0.80452   1.00
C5       0.79668    0.61280    0.67048   1.00
H2       0.79014    0.58609    0.65299   1.00
C5       0.83245    0.63334    0.65334   1.00
H2       0.77102    0.63274    0.66905   1.00
H2       0.85433    0.61077    0.64512   1.00
H2       0.84585    0.65101    0.67711   1.00
C5       0.82250    0.65931    0.61796   1.00
H2       0.80641    0.64189    0.59585   1.00
H2       0.84955    0.67109    0.60434   1.00
H2       0.80450    0.68506    0.62678   1.00
C5       0.85459    0.50980    0.82148   1.00
H2       0.86354    0.48782    0.84369   1.00
H2       0.83428    0.53045    0.83625   1.00
C5       0.89029    0.53197    0.80560   1.00
H2       0.90809    0.54334    0.83020   1.00
C5       0.67260    0.64930    0.36773   1.00
H2       0.65734    0.67346    0.35245   1.00
H2       0.65124    0.63739    0.38901   1.00
C5       0.68437    0.61759    0.33781   1.00
H2       0.65921    0.59815    0.33110   1.00
H2       0.70876    0.59967    0.34960   1.00
O_3      0.79790    0.69793    0.52000   1.00
C4       0.74981    0.75040    0.47900   1.00
C3c      0.72368    0.72723    0.45757   1.00
H1       0.70292    0.70897    0.47275   1.00
C3d      0.77625    0.77441    0.45865   1.00
C3       0.72422    0.72677    0.41646   1.00
O2       0.69476    0.70712    0.39752   1.00
C3       0.77737    0.77346    0.41773   1.00
H1       0.79908    0.79132    0.40343   1.00
C2       0.75143    0.74987    0.39561   1.00
C5       0.83725    0.71008    0.52121   1.00
H2       0.84868    0.71175    0.55162   1.00
H2       0.84093    0.73932    0.50734   1.00
C5       0.86121    0.68027    0.49878   1.00
H2       0.84910    0.67780    0.46871   1.00
H2       0.85762    0.65128    0.51309   1.00
C5       0.90437    0.69202    0.49746   1.00
H2       0.91658    0.69482    0.52740   1.00
H2       0.90813    0.72032    0.48197   1.00
H2       0.92155    0.66946    0.48170   1.00
C5       0.78925    0.83223    0.48895   1.00
C5       0.70670    0.66849    0.38930   1.00
H2       0.76402    0.82911    0.50912   1.00
H2       0.77973    0.84925    0.46288   1.00
H2       0.71294    0.65255    0.41700   1.00
H2       0.73375    0.66738    0.37105   1.00
H2       0.69351    0.63089    0.30945   1.00
H2       0.78749    0.88125    0.55750   1.00
H2       0.78783    0.90908    0.51234   1.00
C2       0.75256    0.74976    0.60395   1.00
C3       0.72669    0.77489    0.58403   1.00
O2       0.70948    0.80578    0.60326   1.00
C3       0.77577    0.72382    0.58174   1.00
H1       0.79512    0.70352    0.59615   1.00
C3a      0.72533    0.77429    0.54287   1.00
H1       0.70702    0.79524    0.52798   1.00
C3b      0.77525    0.72417    0.54078   1.00
C4       0.74997    0.74958    0.52100   1.00
O_3      0.80452    0.79550    0.47833   1.00
C5       0.67048    0.79668    0.61280   1.00
H2       0.65299    0.79014    0.58609   1.00
C5       0.65334    0.83245    0.63334   1.00
H2       0.66905    0.77102    0.63274   1.00
H2       0.64512    0.85433    0.61077   1.00
H2       0.67711    0.84585    0.65101   1.00
C5       0.61796    0.82250    0.65931   1.00
H2       0.59585    0.80641    0.64189   1.00
H2       0.60434    0.84955    0.67109   1.00
H2       0.62678    0.80450    0.68506   1.00
C5       0.82148    0.85459    0.50980   1.00
H2       0.84369    0.86354    0.48782   1.00
H2       0.83625    0.83428    0.53045   1.00
C5       0.80560    0.89029    0.53197   1.00
H2       0.83020    0.90809    0.54334   1.00
C5       0.17260    0.35070    1.13227   1.00
H2       0.15734    0.32654    1.14755   1.00
H2       0.15124    0.36261    1.11099   1.00
C5       0.18437    0.38241    1.16219   1.00
H2       0.15921    0.40185    1.16890   1.00
H2       0.20876    0.40033    1.15040   1.00
O_3      0.29790    0.30207    0.98000   1.00
C4       0.24981    0.24960    1.02100   1.00
C3c      0.22368    0.27277    1.04243   1.00
H1       0.20292    0.29103    1.02725   1.00
C3d      0.27625    0.22559    1.04135   1.00
C3       0.22422    0.27323    1.08354   1.00
O2       0.19476    0.29288    1.10248   1.00
C3       0.27737    0.22654    1.08227   1.00
H1       0.29908    0.20868    1.09657   1.00
C2       0.25143    0.25013    1.10439   1.00
C5       0.33725    0.28992    0.97879   1.00
H2       0.34868    0.28825    0.94838   1.00
H2       0.34093    0.26068    0.99266   1.00
C5       0.36121    0.31973    1.00122   1.00
H2       0.34910    0.32220    1.03129   1.00
H2       0.35762    0.34872    0.98691   1.00
C5       0.40437    0.30798    1.00254   1.00
H2       0.41658    0.30518    0.97260   1.00
H2       0.40813    0.27968    1.01803   1.00
H2       0.42155    0.33054    1.01830   1.00
C5       0.28925    0.16777    1.01105   1.00
C5       0.20670    0.33151    1.11070   1.00
H2       0.26402    0.17089    0.99088   1.00
H2       0.27973    0.15075    1.03712   1.00
H2       0.21294    0.34745    1.08300   1.00
H2       0.23375    0.33262    1.12895   1.00
H2       0.19351    0.36911    1.19055   1.00
H2       0.28749    0.11875    0.94250   1.00
H2       0.28783    0.09092    0.98766   1.00
C2       0.25256    0.25024    0.89605   1.00
C3       0.22669    0.22511    0.91597   1.00
O2       0.20948    0.19422    0.89674   1.00
C3       0.27577    0.27618    0.91826   1.00
H1       0.29512    0.29648    0.90385   1.00
C3a      0.22533    0.22571    0.95713   1.00
H1       0.20702    0.20476    0.97202   1.00
C3b      0.27525    0.27583    0.95922   1.00
C4       0.24997    0.25042    0.97900   1.00
O_3      0.30452    0.20450    1.02167   1.00
C5       0.17048    0.20332    0.88720   1.00
H2       0.15299    0.20986    0.91391   1.00
C5       0.15334    0.16755    0.86666   1.00
H2       0.16905    0.22898    0.86726   1.00
H2       0.14512    0.14567    0.88923   1.00
H2       0.17711    0.15415    0.84899   1.00
C5       0.11796    0.17750    0.84069   1.00
H2       0.09585    0.19359    0.85811   1.00
H2       0.10434    0.15045    0.82891   1.00
H2       0.12678    0.19550    0.81494   1.00
C5       0.32148    0.14541    0.99020   1.00
H2       0.34369    0.13646    1.01218   1.00
H2       0.33625    0.16572    0.96955   1.00
C5       0.30560    0.10971    0.96803   1.00
H2       0.33020    0.09191    0.95666   1.00
C5       0.35070    0.63227    0.67260   1.00
H2       0.32654    0.64755    0.65734   1.00
H2       0.36261    0.61099    0.65124   1.00
C5       0.38241    0.66219    0.68437   1.00
H2       0.40185    0.66890    0.65921   1.00
H2       0.40033    0.65040    0.70876   1.00
O_3      0.30207    0.48000    0.79790   1.00
C4       0.24960    0.52100    0.74981   1.00
C3c      0.27277    0.54243    0.72368   1.00
H1       0.29103    0.52725    0.70292   1.00
C3d      0.22559    0.54135    0.77625   1.00
C3       0.27323    0.58354    0.72422   1.00
O2       0.29288    0.60248    0.69476   1.00
C3       0.22654    0.58227    0.77737   1.00
H1       0.20868    0.59657    0.79908   1.00
C2       0.25013    0.60439    0.75143   1.00
C5       0.28992    0.47879    0.83725   1.00
H2       0.28825    0.44838    0.84868   1.00
H2       0.26068    0.49266    0.84093   1.00
C5       0.31973    0.50122    0.86121   1.00
H2       0.32220    0.53129    0.84910   1.00
H2       0.34872    0.48691    0.85762   1.00
C5       0.30798    0.50254    0.90437   1.00
H2       0.30518    0.47260    0.91658   1.00
H2       0.27968    0.51803    0.90813   1.00
H2       0.33054    0.51830    0.92155   1.00
C5       0.16777    0.51105    0.78925   1.00
C5       0.33151    0.61070    0.70670   1.00
H2       0.17089    0.49088    0.76402   1.00
H2       0.15075    0.53712    0.77973   1.00
H2       0.34745    0.58300    0.71294   1.00
H2       0.33262    0.62895    0.73375   1.00
H2       0.36911    0.69055    0.69351   1.00
H2       0.11875    0.44250    0.78749   1.00
H2       0.09092    0.48766    0.78783   1.00
C2       0.25024    0.39605    0.75256   1.00
C3       0.22511    0.41597    0.72669   1.00
O2       0.19422    0.39674    0.70948   1.00
C3       0.27618    0.41826    0.77577   1.00
H1       0.29648    0.40385    0.79512   1.00
C3a      0.22571    0.45713    0.72533   1.00
H1       0.20476    0.47202    0.70702   1.00
C3b      0.27583    0.45922    0.77525   1.00
C4       0.25042    0.47900    0.74997   1.00
O_3      0.20450    0.52167    0.80452   1.00
C5       0.20332    0.38720    0.67048   1.00
H2       0.20986    0.41391    0.65299   1.00
C5       0.16755    0.36666    0.65334   1.00
H2       0.22898    0.36726    0.66905   1.00
H2       0.14567    0.38923    0.64512   1.00
H2       0.15415    0.34899    0.67711   1.00
C5       0.17750    0.34069    0.61796   1.00
H2       0.19359    0.35811    0.59585   1.00
H2       0.15045    0.32891    0.60434   1.00
H2       0.19550    0.31494    0.62678   1.00
C5       0.14541    0.49020    0.82148   1.00
H2       0.13646    0.51218    0.84369   1.00
H2       0.16572    0.46955    0.83625   1.00
C5       0.10971    0.46803    0.80560   1.00
H2       0.09191    0.45666    0.83020   1.00
C5       -0.13227   0.17260    0.64930   1.00
H2       -0.14755   0.15734    0.67346   1.00
H2       -0.11099   0.15124    0.63739   1.00
C5       -0.16219   0.18437    0.61759   1.00
H2       -0.16890   0.15921    0.59815   1.00
H2       -0.15040   0.20876    0.59967   1.00
O_3      0.02000    0.29790    0.69793   1.00
C4       -0.02100   0.24981    0.75040   1.00
C3c      -0.04243   0.22368    0.72723   1.00
H1       -0.02725   0.20292    0.70897   1.00
C3d      -0.04135   0.27625    0.77441   1.00
C3       -0.08354   0.22422    0.72677   1.00
O2       -0.10248   0.19476    0.70712   1.00
C3       -0.08227   0.27737    0.77346   1.00
H1       -0.09657   0.29908    0.79132   1.00
C2       -0.10439   0.25143    0.74987   1.00
C5       0.02121    0.33725    0.71008   1.00
H2       0.05162    0.34868    0.71175   1.00
H2       0.00734    0.34093    0.73932   1.00
C5       -0.00122   0.36121    0.68027   1.00
H2       -0.03129   0.34910    0.67780   1.00
H2       0.01309    0.35762    0.65128   1.00
C5       -0.00254   0.40437    0.69202   1.00
H2       0.02740    0.41658    0.69482   1.00
H2       -0.01803   0.40813    0.72032   1.00
H2       -0.01830   0.42155    0.66946   1.00
C5       -0.01105   0.28925    0.83223   1.00
C5       -0.11070   0.20670    0.66849   1.00
H2       0.00912    0.26402    0.82911   1.00
H2       -0.03712   0.27973    0.84925   1.00
H2       -0.08300   0.21294    0.65255   1.00
H2       -0.12895   0.23375    0.66738   1.00
H2       -0.19055   0.19351    0.63089   1.00
H2       0.05750    0.28749    0.88125   1.00
H2       0.01234    0.28783    0.90908   1.00
C2       0.10395    0.25256    0.74976   1.00
C3       0.08403    0.22669    0.77489   1.00
O2       0.10326    0.20948    0.80578   1.00
C3       0.08174    0.27577    0.72382   1.00
H1       0.09615    0.29512    0.70352   1.00
C3a      0.04287    0.22533    0.77429   1.00
H1       0.02798    0.20702    0.79524   1.00
C3b      0.04078    0.27525    0.72417   1.00
C4       0.02100    0.24997    0.74958   1.00
O_3      -0.02167   0.30452    0.79550   1.00
C5       0.11280    0.17048    0.79668   1.00
H2       0.08609    0.15299    0.79014   1.00
C5       0.13334    0.15334    0.83245   1.00
H2       0.13274    0.16905    0.77102   1.00
H2       0.11077    0.14512    0.85433   1.00
H2       0.15101    0.17711    0.84585   1.00
C5       0.15931    0.11796    0.82250   1.00
H2       0.14189    0.09585    0.80641   1.00
H2       0.17109    0.10434    0.84955   1.00
H2       0.18506    0.12678    0.80450   1.00
C5       0.00980    0.32148    0.85459   1.00
H2       -0.01218   0.34369    0.86354   1.00
H2       0.03045    0.33625    0.83428   1.00
C5       0.03197    0.30560    0.89029   1.00
H2       0.04334    0.33020    0.90809   1.00
C5       0.63227    0.17260    0.85070   1.00
H2       0.64755    0.15734    0.82654   1.00
H2       0.61099    0.15124    0.86261   1.00
C5       0.66219    0.18437    0.88241   1.00
H2       0.66890    0.15921    0.90185   1.00
H2       0.65040    0.20876    0.90033   1.00
O_3      0.48000    0.29790    0.80207   1.00
C4       0.52100    0.24981    0.74960   1.00
C3c      0.54243    0.22368    0.77277   1.00
H1       0.52725    0.20292    0.79103   1.00
C3d      0.54135    0.27625    0.72559   1.00
C3       0.58354    0.22422    0.77323   1.00
O2       0.60248    0.19476    0.79288   1.00
C3       0.58227    0.27737    0.72654   1.00
H1       0.59657    0.29908    0.70868   1.00
C2       0.60439    0.25143    0.75013   1.00
C5       0.47879    0.33725    0.78992   1.00
H2       0.44838    0.34868    0.78825   1.00
H2       0.49266    0.34093    0.76068   1.00
C5       0.50122    0.36121    0.81973   1.00
H2       0.53129    0.34910    0.82220   1.00
H2       0.48691    0.35762    0.84872   1.00
C5       0.50254    0.40437    0.80798   1.00
H2       0.47260    0.41658    0.80518   1.00
H2       0.51803    0.40813    0.77968   1.00
H2       0.51830    0.42155    0.83054   1.00
C5       0.51105    0.28925    0.66777   1.00
C5       0.61070    0.20670    0.83151   1.00
H2       0.49088    0.26402    0.67089   1.00
H2       0.53712    0.27973    0.65075   1.00
H2       0.58300    0.21294    0.84745   1.00
H2       0.62895    0.23375    0.83262   1.00
H2       0.69055    0.19351    0.86911   1.00
H2       0.44250    0.28749    0.61875   1.00
H2       0.48766    0.28783    0.59092   1.00
C2       0.39605    0.25256    0.75024   1.00
C3       0.41597    0.22669    0.72511   1.00
O2       0.39674    0.20948    0.69422   1.00
C3       0.41826    0.27577    0.77618   1.00
H1       0.40385    0.29512    0.79648   1.00
C3a      0.45713    0.22533    0.72571   1.00
H1       0.47202    0.20702    0.70476   1.00
C3b      0.45922    0.27525    0.77583   1.00
C4       0.47900    0.24997    0.75042   1.00
O_3      0.52167    0.30452    0.70450   1.00
C5       0.38720    0.17048    0.70332   1.00
H2       0.41391    0.15299    0.70986   1.00
C5       0.36666    0.15334    0.66755   1.00
H2       0.36726    0.16905    0.72898   1.00
H2       0.38923    0.14512    0.64567   1.00
H2       0.34899    0.17711    0.65415   1.00
C5       0.34069    0.11796    0.67750   1.00
H2       0.35811    0.09585    0.69359   1.00
H2       0.32891    0.10434    0.65045   1.00
H2       0.31494    0.12678    0.69550   1.00
C5       0.49020    0.32148    0.64541   1.00
H2       0.51218    0.34369    0.63646   1.00
H2       0.46955    0.33625    0.66572   1.00
C5       0.46803    0.30560    0.60971   1.00
H2       0.45666    0.33020    0.59191   1.00
C5       0.14930    -0.13227   0.67260   1.00
H2       0.17346    -0.14755   0.65734   1.00
H2       0.13739    -0.11099   0.65124   1.00
C5       0.11759    -0.16219   0.68437   1.00
H2       0.09815    -0.16890   0.65921   1.00
H2       0.09967    -0.15040   0.70876   1.00
O_3      0.19793    0.02000    0.79790   1.00
C4       0.25040    -0.02100   0.74981   1.00
C3c      0.22723    -0.04243   0.72368   1.00
H1       0.20897    -0.02725   0.70292   1.00
C3d      0.27441    -0.04135   0.77625   1.00
C3       0.22677    -0.08354   0.72422   1.00
O2       0.20712    -0.10248   0.69476   1.00
C3       0.27346    -0.08227   0.77737   1.00
H1       0.29132    -0.09657   0.79908   1.00
C2       0.24987    -0.10439   0.75143   1.00
C5       0.21008    0.02121    0.83725   1.00
H2       0.21175    0.05162    0.84868   1.00
H2       0.23932    0.00734    0.84093   1.00
C5       0.18027    -0.00122   0.86121   1.00
H2       0.17780    -0.03129   0.84910   1.00
H2       0.15128    0.01309    0.85762   1.00
C5       0.19202    -0.00254   0.90437   1.00
H2       0.19482    0.02740    0.91658   1.00
H2       0.22032    -0.01803   0.90813   1.00
H2       0.16946    -0.01830   0.92155   1.00
C5       0.33223    -0.01105   0.78925   1.00
C5       0.16849    -0.11070   0.70670   1.00
H2       0.32911    0.00912    0.76402   1.00
H2       0.34925    -0.03712   0.77973   1.00
H2       0.15255    -0.08300   0.71294   1.00
H2       0.16738    -0.12895   0.73375   1.00
H2       0.13089    -0.19055   0.69351   1.00
H2       0.38125    0.05750    0.78749   1.00
H2       0.40908    0.01234    0.78783   1.00
C2       0.24976    0.10395    0.75256   1.00
C3       0.27489    0.08403    0.72669   1.00
O2       0.30578    0.10326    0.70948   1.00
C3       0.22382    0.08174    0.77577   1.00
H1       0.20352    0.09615    0.79512   1.00
C3a      0.27429    0.04287    0.72533   1.00
H1       0.29524    0.02798    0.70702   1.00
C3b      0.22417    0.04078    0.77525   1.00
C4       0.24958    0.02100    0.74997   1.00
O_3      0.29550    -0.02167   0.80452   1.00
C5       0.29668    0.11280    0.67048   1.00
H2       0.29014    0.08609    0.65299   1.00
C5       0.33245    0.13334    0.65334   1.00
H2       0.27102    0.13274    0.66905   1.00
H2       0.35433    0.11077    0.64512   1.00
H2       0.34585    0.15101    0.67711   1.00
C5       0.32250    0.15931    0.61796   1.00
H2       0.30641    0.14189    0.59585   1.00
H2       0.34955    0.17109    0.60434   1.00
H2       0.30450    0.18506    0.62678   1.00
C5       0.35459    0.00980    0.82148   1.00
H2       0.36354    -0.01218   0.84369   1.00
H2       0.33428    0.03045    0.83625   1.00
C5       0.39029    0.03197    0.80560   1.00
H2       0.40809    0.04334    0.83020   1.00
C5       0.17260    0.14930    0.36773   1.00
H2       0.15734    0.17346    0.35245   1.00
H2       0.15124    0.13739    0.38901   1.00
C5       0.18437    0.11759    0.33781   1.00
H2       0.15921    0.09815    0.33110   1.00
H2       0.20876    0.09967    0.34960   1.00
O_3      0.29790    0.19793    0.52000   1.00
C4       0.24981    0.25040    0.47900   1.00
C3c      0.22368    0.22723    0.45757   1.00
H1       0.20292    0.20897    0.47275   1.00
C3d      0.27625    0.27441    0.45865   1.00
C3       0.22422    0.22677    0.41646   1.00
O2       0.19476    0.20712    0.39752   1.00
C3       0.27737    0.27346    0.41773   1.00
H1       0.29908    0.29132    0.40343   1.00
C2       0.25143    0.24987    0.39561   1.00
C5       0.33725    0.21008    0.52121   1.00
H2       0.34868    0.21175    0.55162   1.00
H2       0.34093    0.23932    0.50734   1.00
C5       0.36121    0.18027    0.49878   1.00
H2       0.34910    0.17780    0.46871   1.00
H2       0.35762    0.15128    0.51309   1.00
C5       0.40437    0.19202    0.49746   1.00
H2       0.41658    0.19482    0.52740   1.00
H2       0.40813    0.22032    0.48197   1.00
H2       0.42155    0.16946    0.48170   1.00
C5       0.28925    0.33223    0.48895   1.00
C5       0.20670    0.16849    0.38930   1.00
H2       0.26402    0.32911    0.50912   1.00
H2       0.27973    0.34925    0.46288   1.00
H2       0.21294    0.15255    0.41700   1.00
H2       0.23375    0.16738    0.37105   1.00
H2       0.19351    0.13089    0.30945   1.00
H2       0.28749    0.38125    0.55750   1.00
H2       0.28783    0.40908    0.51234   1.00
C2       0.25256    0.24976    0.60395   1.00
C3       0.22669    0.27489    0.58403   1.00
O2       0.20948    0.30578    0.60326   1.00
C3       0.27577    0.22382    0.58174   1.00
H1       0.29512    0.20352    0.59615   1.00
C3a      0.22533    0.27429    0.54287   1.00
H1       0.20702    0.29524    0.52798   1.00
C3b      0.27525    0.22417    0.54078   1.00
C4       0.24997    0.24958    0.52100   1.00
O_3      0.30452    0.29550    0.47833   1.00
C5       0.17048    0.29668    0.61280   1.00
H2       0.15299    0.29014    0.58609   1.00
C5       0.15334    0.33245    0.63334   1.00
H2       0.16905    0.27102    0.63274   1.00
H2       0.14512    0.35433    0.61077   1.00
H2       0.17711    0.34585    0.65101   1.00
C5       0.11796    0.32250    0.65931   1.00
H2       0.09585    0.30641    0.64189   1.00
H2       0.10434    0.34955    0.67109   1.00
H2       0.12678    0.30450    0.68506   1.00
C5       0.32148    0.35459    0.50980   1.00
H2       0.34369    0.36354    0.48782   1.00
H2       0.33625    0.33428    0.53045   1.00
C5       0.30560    0.39029    0.53197   1.00
H2       0.33020    0.40809    0.54334   1.00
C5       0.17260    0.85070    0.63227   1.00
H2       0.15734    0.82654    0.64755   1.00
H2       0.15124    0.86261    0.61099   1.00
C5       0.18437    0.88241    0.66219   1.00
H2       0.15921    0.90185    0.66890   1.00
H2       0.20876    0.90033    0.65040   1.00
O_3      0.29790    0.80207    0.48000   1.00
C4       0.24981    0.74960    0.52100   1.00
C3c      0.22368    0.77277    0.54243   1.00
H1       0.20292    0.79103    0.52725   1.00
C3d      0.27625    0.72559    0.54135   1.00
C3       0.22422    0.77323    0.58354   1.00
O2       0.19476    0.79288    0.60248   1.00
C3       0.27737    0.72654    0.58227   1.00
H1       0.29908    0.70868    0.59657   1.00
C2       0.25143    0.75013    0.60439   1.00
C5       0.33725    0.78992    0.47879   1.00
H2       0.34868    0.78825    0.44838   1.00
H2       0.34093    0.76068    0.49266   1.00
C5       0.36121    0.81973    0.50122   1.00
H2       0.34910    0.82220    0.53129   1.00
H2       0.35762    0.84872    0.48691   1.00
C5       0.40437    0.80798    0.50254   1.00
H2       0.41658    0.80518    0.47260   1.00
H2       0.40813    0.77968    0.51803   1.00
H2       0.42155    0.83054    0.51830   1.00
C5       0.28925    0.66777    0.51105   1.00
C5       0.20670    0.83151    0.61070   1.00
H2       0.26402    0.67089    0.49088   1.00
H2       0.27973    0.65075    0.53712   1.00
H2       0.21294    0.84745    0.58300   1.00
H2       0.23375    0.83262    0.62895   1.00
H2       0.19351    0.86911    0.69055   1.00
H2       0.28749    0.61875    0.44250   1.00
H2       0.28783    0.59092    0.48766   1.00
C2       0.25256    0.75024    0.39605   1.00
C3       0.22669    0.72511    0.41597   1.00
O2       0.20948    0.69422    0.39674   1.00
C3       0.27577    0.77618    0.41826   1.00
H1       0.29512    0.79648    0.40385   1.00
C3a      0.22533    0.72571    0.45713   1.00
H1       0.20702    0.70476    0.47202   1.00
C3b      0.27525    0.77583    0.45922   1.00
C4       0.24997    0.75042    0.47900   1.00
O_3      0.30452    0.70450    0.52167   1.00
C5       0.17048    0.70332    0.38720   1.00
H2       0.15299    0.70986    0.41391   1.00
C5       0.15334    0.66755    0.36666   1.00
H2       0.16905    0.72898    0.36726   1.00
H2       0.14512    0.64567    0.38923   1.00
H2       0.17711    0.65415    0.34899   1.00
C5       0.11796    0.67750    0.34069   1.00
H2       0.09585    0.69359    0.35811   1.00
H2       0.10434    0.65045    0.32891   1.00
H2       0.12678    0.69550    0.31494   1.00
C5       0.32148    0.64541    0.49020   1.00
H2       0.34369    0.63646    0.51218   1.00
H2       0.33625    0.66572    0.46955   1.00
C5       0.30560    0.60971    0.46803   1.00
H2       0.33020    0.59191    0.45666   1.00
C5       0.35070    1.13227    0.17260   1.00
H2       0.32654    1.14755    0.15734   1.00
H2       0.36261    1.11099    0.15124   1.00
C5       0.38241    1.16219    0.18437   1.00
H2       0.40185    1.16890    0.15921   1.00
H2       0.40033    1.15040    0.20876   1.00
O_3      0.30207    0.98000    0.29790   1.00
C4       0.24960    1.02100    0.24981   1.00
C3c      0.27277    1.04243    0.22368   1.00
H1       0.29103    1.02725    0.20292   1.00
C3d      0.22559    1.04135    0.27625   1.00
C3       0.27323    1.08354    0.22422   1.00
O2       0.29288    1.10248    0.19476   1.00
C3       0.22654    1.08227    0.27737   1.00
H1       0.20868    1.09657    0.29908   1.00
C2       0.25013    1.10439    0.25143   1.00
C5       0.28992    0.97879    0.33725   1.00
H2       0.28825    0.94838    0.34868   1.00
H2       0.26068    0.99266    0.34093   1.00
C5       0.31973    1.00122    0.36121   1.00
H2       0.32220    1.03129    0.34910   1.00
H2       0.34872    0.98691    0.35762   1.00
C5       0.30798    1.00254    0.40437   1.00
H2       0.30518    0.97260    0.41658   1.00
H2       0.27968    1.01803    0.40813   1.00
H2       0.33054    1.01830    0.42155   1.00
C5       0.16777    1.01105    0.28925   1.00
C5       0.33151    1.11070    0.20670   1.00
H2       0.17089    0.99088    0.26402   1.00
H2       0.15075    1.03712    0.27973   1.00
H2       0.34745    1.08300    0.21294   1.00
H2       0.33262    1.12895    0.23375   1.00
H2       0.36911    1.19055    0.19351   1.00
H2       0.11875    0.94250    0.28749   1.00
H2       0.09092    0.98766    0.28783   1.00
C2       0.25024    0.89605    0.25256   1.00
C3       0.22511    0.91597    0.22669   1.00
O2       0.19422    0.89674    0.20948   1.00
C3       0.27618    0.91826    0.27577   1.00
H1       0.29648    0.90385    0.29512   1.00
C3a      0.22571    0.95713    0.22533   1.00
H1       0.20476    0.97202    0.20702   1.00
C3b      0.27583    0.95922    0.27525   1.00
C4       0.25042    0.97900    0.24997   1.00
O_3      0.20450    1.02167    0.30452   1.00
C5       0.20332    0.88720    0.17048   1.00
H2       0.20986    0.91391    0.15299   1.00
C5       0.16755    0.86666    0.15334   1.00
H2       0.22898    0.86726    0.16905   1.00
H2       0.14567    0.88923    0.14512   1.00
H2       0.15415    0.84899    0.17711   1.00
C5       0.17750    0.84069    0.11796   1.00
H2       0.19359    0.85811    0.09585   1.00
H2       0.15045    0.82891    0.10434   1.00
H2       0.19550    0.81494    0.12678   1.00
C5       0.14541    0.99020    0.32148   1.00
H2       0.13646    1.01218    0.34369   1.00
H2       0.16572    0.96955    0.33625   1.00
C5       0.10971    0.96803    0.30560   1.00
H2       0.09191    0.95666    0.33020   1.00
C5       -0.13227   0.67260    0.14930   1.00
H2       -0.14755   0.65734    0.17346   1.00
H2       -0.11099   0.65124    0.13739   1.00
C5       -0.16219   0.68437    0.11759   1.00
H2       -0.16890   0.65921    0.09815   1.00
H2       -0.15040   0.70876    0.09967   1.00
O_3      0.02000    0.79790    0.19793   1.00
C4       -0.02100   0.74981    0.25040   1.00
C3c      -0.04243   0.72368    0.22723   1.00
H1       -0.02725   0.70292    0.20897   1.00
C3d      -0.04135   0.77625    0.27441   1.00
C3       -0.08354   0.72422    0.22677   1.00
O2       -0.10248   0.69476    0.20712   1.00
C3       -0.08227   0.77737    0.27346   1.00
H1       -0.09657   0.79908    0.29132   1.00
C2       -0.10439   0.75143    0.24987   1.00
C5       0.02121    0.83725    0.21008   1.00
H2       0.05162    0.84868    0.21175   1.00
H2       0.00734    0.84093    0.23932   1.00
C5       -0.00122   0.86121    0.18027   1.00
H2       -0.03129   0.84910    0.17780   1.00
H2       0.01309    0.85762    0.15128   1.00
C5       -0.00254   0.90437    0.19202   1.00
H2       0.02740    0.91658    0.19482   1.00
H2       -0.01803   0.90813    0.22032   1.00
H2       -0.01830   0.92155    0.16946   1.00
C5       -0.01105   0.78925    0.33223   1.00
C5       -0.11070   0.70670    0.16849   1.00
H2       0.00912    0.76402    0.32911   1.00
H2       -0.03712   0.77973    0.34925   1.00
H2       -0.08300   0.71294    0.15255   1.00
H2       -0.12895   0.73375    0.16738   1.00
H2       -0.19055   0.69351    0.13089   1.00
H2       0.05750    0.78749    0.38125   1.00
H2       0.01234    0.78783    0.40908   1.00
C2       0.10395    0.75256    0.24976   1.00
C3       0.08403    0.72669    0.27489   1.00
O2       0.10326    0.70948    0.30578   1.00
C3       0.08174    0.77577    0.22382   1.00
H1       0.09615    0.79512    0.20352   1.00
C3a      0.04287    0.72533    0.27429   1.00
H1       0.02798    0.70702    0.29524   1.00
C3b      0.04078    0.77525    0.22417   1.00
C4       0.02100    0.74997    0.24958   1.00
O_3      -0.02167   0.80452    0.29550   1.00
C5       0.11280    0.67048    0.29668   1.00
H2       0.08609    0.65299    0.29014   1.00
C5       0.13334    0.65334    0.33245   1.00
H2       0.13274    0.66905    0.27102   1.00
H2       0.11077    0.64512    0.35433   1.00
H2       0.15101    0.67711    0.34585   1.00
C5       0.15931    0.61796    0.32250   1.00
H2       0.14189    0.59585    0.30641   1.00
H2       0.17109    0.60434    0.34955   1.00
H2       0.18506    0.62678    0.30450   1.00
C5       0.00980    0.82148    0.35459   1.00
H2       -0.01218   0.84369    0.36354   1.00
H2       0.03045    0.83625    0.33428   1.00
C5       0.03197    0.80560    0.39029   1.00
H2       0.04334    0.83020    0.40809   1.00
C5       0.63227    0.67260    0.35070   1.00
H2       0.64755    0.65734    0.32654   1.00
H2       0.61099    0.65124    0.36261   1.00
C5       0.66219    0.68437    0.38241   1.00
H2       0.66890    0.65921    0.40185   1.00
H2       0.65040    0.70876    0.40033   1.00
O_3      0.48000    0.79790    0.30207   1.00
C4       0.52100    0.74981    0.24960   1.00
C3c      0.54243    0.72368    0.27277   1.00
H1       0.52725    0.70292    0.29103   1.00
C3d      0.54135    0.77625    0.22559   1.00
C3       0.58354    0.72422    0.27323   1.00
O2       0.60248    0.69476    0.29288   1.00
C3       0.58227    0.77737    0.22654   1.00
H1       0.59657    0.79908    0.20868   1.00
C2       0.60439    0.75143    0.25013   1.00
C5       0.47879    0.83725    0.28992   1.00
H2       0.44838    0.84868    0.28825   1.00
H2       0.49266    0.84093    0.26068   1.00
C5       0.50122    0.86121    0.31973   1.00
H2       0.53129    0.84910    0.32220   1.00
H2       0.48691    0.85762    0.34872   1.00
C5       0.50254    0.90437    0.30798   1.00
H2       0.47260    0.91658    0.30518   1.00
H2       0.51803    0.90813    0.27968   1.00
H2       0.51830    0.92155    0.33054   1.00
C5       0.51105    0.78925    0.16777   1.00
C5       0.61070    0.70670    0.33151   1.00
H2       0.49088    0.76402    0.17089   1.00
H2       0.53712    0.77973    0.15075   1.00
H2       0.58300    0.71294    0.34745   1.00
H2       0.62895    0.73375    0.33262   1.00
H2       0.69055    0.69351    0.36911   1.00
H2       0.44250    0.78749    0.11875   1.00
H2       0.48766    0.78783    0.09092   1.00
C2       0.39605    0.75256    0.25024   1.00
C3       0.41597    0.72669    0.22511   1.00
O2       0.39674    0.70948    0.19422   1.00
C3       0.41826    0.77577    0.27618   1.00
H1       0.40385    0.79512    0.29648   1.00
C3a      0.45713    0.72533    0.22571   1.00
H1       0.47202    0.70702    0.20476   1.00
C3b      0.45922    0.77525    0.27583   1.00
C4       0.47900    0.74997    0.25042   1.00
O_3      0.52167    0.80452    0.20450   1.00
C5       0.38720    0.67048    0.20332   1.00
H2       0.41391    0.65299    0.20986   1.00
C5       0.36666    0.65334    0.16755   1.00
H2       0.36726    0.66905    0.22898   1.00
H2       0.38923    0.64512    0.14567   1.00
H2       0.34899    0.67711    0.15415   1.00
C5       0.34069    0.61796    0.17750   1.00
H2       0.35811    0.59585    0.19359   1.00
H2       0.32891    0.60434    0.15045   1.00
H2       0.31494    0.62678    0.19550   1.00
C5       0.49020    0.82148    0.14541   1.00
H2       0.51218    0.84369    0.13646   1.00
H2       0.46955    0.83625    0.16572   1.00
C5       0.46803    0.80560    0.10971   1.00
H2       0.45666    0.83020    0.09191   1.00
C5       0.14930    0.36773    0.17260   1.00
H2       0.17346    0.35245    0.15734   1.00
H2       0.13739    0.38901    0.15124   1.00
C5       0.11759    0.33781    0.18437   1.00
H2       0.09815    0.33110    0.15921   1.00
H2       0.09967    0.34960    0.20876   1.00
O_3      0.19793    0.52000    0.29790   1.00
C4       0.25040    0.47900    0.24981   1.00
C3c      0.22723    0.45757    0.22368   1.00
H1       0.20897    0.47275    0.20292   1.00
C3d      0.27441    0.45865    0.27625   1.00
C3       0.22677    0.41646    0.22422   1.00
O2       0.20712    0.39752    0.19476   1.00
C3       0.27346    0.41773    0.27737   1.00
H1       0.29132    0.40343    0.29908   1.00
C2       0.24987    0.39561    0.25143   1.00
C5       0.21008    0.52121    0.33725   1.00
H2       0.21175    0.55162    0.34868   1.00
H2       0.23932    0.50734    0.34093   1.00
C5       0.18027    0.49878    0.36121   1.00
H2       0.17780    0.46871    0.34910   1.00
H2       0.15128    0.51309    0.35762   1.00
C5       0.19202    0.49746    0.40437   1.00
H2       0.19482    0.52740    0.41658   1.00
H2       0.22032    0.48197    0.40813   1.00
H2       0.16946    0.48170    0.42155   1.00
C5       0.33223    0.48895    0.28925   1.00
C5       0.16849    0.38930    0.20670   1.00
H2       0.32911    0.50912    0.26402   1.00
H2       0.34925    0.46288    0.27973   1.00
H2       0.15255    0.41700    0.21294   1.00
H2       0.16738    0.37105    0.23375   1.00
H2       0.13089    0.30945    0.19351   1.00
H2       0.38125    0.55750    0.28749   1.00
H2       0.40908    0.51234    0.28783   1.00
C2       0.24976    0.60395    0.25256   1.00
C3       0.27489    0.58403    0.22669   1.00
O2       0.30578    0.60326    0.20948   1.00
C3       0.22382    0.58174    0.27577   1.00
H1       0.20352    0.59615    0.29512   1.00
C3a      0.27429    0.54287    0.22533   1.00
H1       0.29524    0.52798    0.20702   1.00
C3b      0.22417    0.54078    0.27525   1.00
C4       0.24958    0.52100    0.24997   1.00
O_3      0.29550    0.47833    0.30452   1.00
C5       0.29668    0.61280    0.17048   1.00
H2       0.29014    0.58609    0.15299   1.00
C5       0.33245    0.63334    0.15334   1.00
H2       0.27102    0.63274    0.16905   1.00
H2       0.35433    0.61077    0.14512   1.00
H2       0.34585    0.65101    0.17711   1.00
C5       0.32250    0.65931    0.11796   1.00
H2       0.30641    0.64189    0.09585   1.00
H2       0.34955    0.67109    0.10434   1.00
H2       0.30450    0.68506    0.12678   1.00
C5       0.35459    0.50980    0.32148   1.00
H2       0.36354    0.48782    0.34369   1.00
H2       0.33428    0.53045    0.33625   1.00
C5       0.39029    0.53197    0.30560   1.00
H2       0.40809    0.54334    0.33020   1.00
C5       0.17260    0.64930    -0.13227   1.00
H2       0.15734    0.67346    -0.14755   1.00
H2       0.15124    0.63739    -0.11099   1.00
C5       0.18437    0.61759    -0.16219   1.00
H2       0.15921    0.59815    -0.16890   1.00
H2       0.20876    0.59967    -0.15040   1.00
O_3      0.29790    0.69793    0.02000   1.00
C4       0.24981    0.75040    -0.02100   1.00
C3c      0.22368    0.72723    -0.04243   1.00
H1       0.20292    0.70897    -0.02725   1.00
C3d      0.27625    0.77441    -0.04135   1.00
C3       0.22422    0.72677    -0.08354   1.00
O2       0.19476    0.70712    -0.10248   1.00
C3       0.27737    0.77346    -0.08227   1.00
H1       0.29908    0.79132    -0.09657   1.00
C2       0.25143    0.74987    -0.10439   1.00
C5       0.33725    0.71008    0.02121   1.00
H2       0.34868    0.71175    0.05162   1.00
H2       0.34093    0.73932    0.00734   1.00
C5       0.36121    0.68027    -0.00122   1.00
H2       0.34910    0.67780    -0.03129   1.00
H2       0.35762    0.65128    0.01309   1.00
C5       0.40437    0.69202    -0.00254   1.00
H2       0.41658    0.69482    0.02740   1.00
H2       0.40813    0.72032    -0.01803   1.00
H2       0.42155    0.66946    -0.01830   1.00
C5       0.28925    0.83223    -0.01105   1.00
C5       0.20670    0.66849    -0.11070   1.00
H2       0.26402    0.82911    0.00912   1.00
H2       0.27973    0.84925    -0.03712   1.00
H2       0.21294    0.65255    -0.08300   1.00
H2       0.23375    0.66738    -0.12895   1.00
H2       0.19351    0.63089    -0.19055   1.00
H2       0.28749    0.88125    0.05750   1.00
H2       0.28783    0.90908    0.01234   1.00
C2       0.25256    0.74976    0.10395   1.00
C3       0.22669    0.77489    0.08403   1.00
O2       0.20948    0.80578    0.10326   1.00
C3       0.27577    0.72382    0.08174   1.00
H1       0.29512    0.70352    0.09615   1.00
C3a      0.22533    0.77429    0.04287   1.00
H1       0.20702    0.79524    0.02798   1.00
C3b      0.27525    0.72417    0.04078   1.00
C4       0.24997    0.74958    0.02100   1.00
O_3      0.30452    0.79550    -0.02167   1.00
C5       0.17048    0.79668    0.11280   1.00
H2       0.15299    0.79014    0.08609   1.00
C5       0.15334    0.83245    0.13334   1.00
H2       0.16905    0.77102    0.13274   1.00
H2       0.14512    0.85433    0.11077   1.00
H2       0.17711    0.84585    0.15101   1.00
C5       0.11796    0.82250    0.15931   1.00
H2       0.09585    0.80641    0.14189   1.00
H2       0.10434    0.84955    0.17109   1.00
H2       0.12678    0.80450    0.18506   1.00
C5       0.32148    0.85459    0.00980   1.00
H2       0.34369    0.86354    -0.01218   1.00
H2       0.33625    0.83428    0.03045   1.00
C5       0.30560    0.89029    0.03197   1.00
H2       0.33020    0.90809    0.04334   1.00
C5       0.67260    0.35070    0.63227   1.00
H2       0.65734    0.32654    0.64755   1.00
H2       0.65124    0.36261    0.61099   1.00
C5       0.68437    0.38241    0.66219   1.00
H2       0.65921    0.40185    0.66890   1.00
H2       0.70876    0.40033    0.65040   1.00
O_3      0.79790    0.30207    0.48000   1.00
C4       0.74981    0.24960    0.52100   1.00
C3c      0.72368    0.27277    0.54243   1.00
H1       0.70292    0.29103    0.52725   1.00
C3d      0.77625    0.22559    0.54135   1.00
C3       0.72422    0.27323    0.58354   1.00
O2       0.69476    0.29288    0.60248   1.00
C3       0.77737    0.22654    0.58227   1.00
H1       0.79908    0.20868    0.59657   1.00
C2       0.75143    0.25013    0.60439   1.00
C5       0.83725    0.28992    0.47879   1.00
H2       0.84868    0.28825    0.44838   1.00
H2       0.84093    0.26068    0.49266   1.00
C5       0.86121    0.31973    0.50122   1.00
H2       0.84910    0.32220    0.53129   1.00
H2       0.85762    0.34872    0.48691   1.00
C5       0.90437    0.30798    0.50254   1.00
H2       0.91658    0.30518    0.47260   1.00
H2       0.90813    0.27968    0.51803   1.00
H2       0.92155    0.33054    0.51830   1.00
C5       0.78925    0.16777    0.51105   1.00
C5       0.70670    0.33151    0.61070   1.00
H2       0.76402    0.17089    0.49088   1.00
H2       0.77973    0.15075    0.53712   1.00
H2       0.71294    0.34745    0.58300   1.00
H2       0.73375    0.33262    0.62895   1.00
H2       0.69351    0.36911    0.69055   1.00
H2       0.78749    0.11875    0.44250   1.00
H2       0.78783    0.09092    0.48766   1.00
C2       0.75256    0.25024    0.39605   1.00
C3       0.72669    0.22511    0.41597   1.00
O2       0.70948    0.19422    0.39674   1.00
C3       0.77577    0.27618    0.41826   1.00
H1       0.79512    0.29648    0.40385   1.00
C3a      0.72533    0.22571    0.45713   1.00
H1       0.70702    0.20476    0.47202   1.00
C3b      0.77525    0.27583    0.45922   1.00
C4       0.74997    0.25042    0.47900   1.00
O_3      0.80452    0.20450    0.52167   1.00
C5       0.67048    0.20332    0.38720   1.00
H2       0.65299    0.20986    0.41391   1.00
C5       0.65334    0.16755    0.36666   1.00
H2       0.66905    0.22898    0.36726   1.00
H2       0.64512    0.14567    0.38923   1.00
H2       0.67711    0.15415    0.34899   1.00
C5       0.61796    0.17750    0.34069   1.00
H2       0.59585    0.19359    0.35811   1.00
H2       0.60434    0.15045    0.32891   1.00
H2       0.62678    0.19550    0.31494   1.00
C5       0.82148    0.14541    0.49020   1.00
H2       0.84369    0.13646    0.51218   1.00
H2       0.83625    0.16572    0.46955   1.00
C5       0.80560    0.10971    0.46803   1.00
H2       0.83020    0.09191    0.45666   1.00
C5       0.85070    0.63227    0.17260   1.00
H2       0.82654    0.64755    0.15734   1.00
H2       0.86261    0.61099    0.15124   1.00
C5       0.88241    0.66219    0.18437   1.00
H2       0.90185    0.66890    0.15921   1.00
H2       0.90033    0.65040    0.20876   1.00
O_3      0.80207    0.48000    0.29790   1.00
C4       0.74960    0.52100    0.24981   1.00
C3c      0.77277    0.54243    0.22368   1.00
H1       0.79103    0.52725    0.20292   1.00
C3d      0.72559    0.54135    0.27625   1.00
C3       0.77323    0.58354    0.22422   1.00
O2       0.79288    0.60248    0.19476   1.00
C3       0.72654    0.58227    0.27737   1.00
H1       0.70868    0.59657    0.29908   1.00
C2       0.75013    0.60439    0.25143   1.00
C5       0.78992    0.47879    0.33725   1.00
H2       0.78825    0.44838    0.34868   1.00
H2       0.76068    0.49266    0.34093   1.00
C5       0.81973    0.50122    0.36121   1.00
H2       0.82220    0.53129    0.34910   1.00
H2       0.84872    0.48691    0.35762   1.00
C5       0.80798    0.50254    0.40437   1.00
H2       0.80518    0.47260    0.41658   1.00
H2       0.77968    0.51803    0.40813   1.00
H2       0.83054    0.51830    0.42155   1.00
C5       0.66777    0.51105    0.28925   1.00
C5       0.83151    0.61070    0.20670   1.00
H2       0.67089    0.49088    0.26402   1.00
H2       0.65075    0.53712    0.27973   1.00
H2       0.84745    0.58300    0.21294   1.00
H2       0.83262    0.62895    0.23375   1.00
H2       0.86911    0.69055    0.19351   1.00
H2       0.61875    0.44250    0.28749   1.00
H2       0.59092    0.48766    0.28783   1.00
C2       0.75024    0.39605    0.25256   1.00
C3       0.72511    0.41597    0.22669   1.00
O2       0.69422    0.39674    0.20948   1.00
C3       0.77618    0.41826    0.27577   1.00
H1       0.79648    0.40385    0.29512   1.00
C3a      0.72571    0.45713    0.22533   1.00
H1       0.70476    0.47202    0.20702   1.00
C3b      0.77583    0.45922    0.27525   1.00
C4       0.75042    0.47900    0.24997   1.00
O_3      0.70450    0.52167    0.30452   1.00
C5       0.70332    0.38720    0.17048   1.00
H2       0.70986    0.41391    0.15299   1.00
C5       0.66755    0.36666    0.15334   1.00
H2       0.72898    0.36726    0.16905   1.00
H2       0.64567    0.38923    0.14512   1.00
H2       0.65415    0.34899    0.17711   1.00
C5       0.67750    0.34069    0.11796   1.00
H2       0.69359    0.35811    0.09585   1.00
H2       0.65045    0.32891    0.10434   1.00
H2       0.69550    0.31494    0.12678   1.00
C5       0.64541    0.49020    0.32148   1.00
H2       0.63646    0.51218    0.34369   1.00
H2       0.66572    0.46955    0.33625   1.00
C5       0.60971    0.46803    0.30560   1.00
H2       0.59191    0.45666    0.33020   1.00
C5       0.36773    0.17260    0.14930   1.00
H2       0.35245    0.15734    0.17346   1.00
H2       0.38901    0.15124    0.13739   1.00
C5       0.33781    0.18437    0.11759   1.00
H2       0.33110    0.15921    0.09815   1.00
H2       0.34960    0.20876    0.09967   1.00
O_3      0.52000    0.29790    0.19793   1.00
C4       0.47900    0.24981    0.25040   1.00
C3c      0.45757    0.22368    0.22723   1.00
H1       0.47275    0.20292    0.20897   1.00
C3d      0.45865    0.27625    0.27441   1.00
C3       0.41646    0.22422    0.22677   1.00
O2       0.39752    0.19476    0.20712   1.00
C3       0.41773    0.27737    0.27346   1.00
H1       0.40343    0.29908    0.29132   1.00
C2       0.39561    0.25143    0.24987   1.00
C5       0.52121    0.33725    0.21008   1.00
H2       0.55162    0.34868    0.21175   1.00
H2       0.50734    0.34093    0.23932   1.00
C5       0.49878    0.36121    0.18027   1.00
H2       0.46871    0.34910    0.17780   1.00
H2       0.51309    0.35762    0.15128   1.00
C5       0.49746    0.40437    0.19202   1.00
H2       0.52740    0.41658    0.19482   1.00
H2       0.48197    0.40813    0.22032   1.00
H2       0.48170    0.42155    0.16946   1.00
C5       0.48895    0.28925    0.33223   1.00
C5       0.38930    0.20670    0.16849   1.00
H2       0.50912    0.26402    0.32911   1.00
H2       0.46288    0.27973    0.34925   1.00
H2       0.41700    0.21294    0.15255   1.00
H2       0.37105    0.23375    0.16738   1.00
H2       0.30945    0.19351    0.13089   1.00
H2       0.55750    0.28749    0.38125   1.00
H2       0.51234    0.28783    0.40908   1.00
C2       0.60395    0.25256    0.24976   1.00
C3       0.58403    0.22669    0.27489   1.00
O2       0.60326    0.20948    0.30578   1.00
C3       0.58174    0.27577    0.22382   1.00
H1       0.59615    0.29512    0.20352   1.00
C3a      0.54287    0.22533    0.27429   1.00
H1       0.52798    0.20702    0.29524   1.00
C3b      0.54078    0.27525    0.22417   1.00
C4       0.52100    0.24997    0.24958   1.00
O_3      0.47833    0.30452    0.29550   1.00
C5       0.61280    0.17048    0.29668   1.00
H2       0.58609    0.15299    0.29014   1.00
C5       0.63334    0.15334    0.33245   1.00
H2       0.63274    0.16905    0.27102   1.00
H2       0.61077    0.14512    0.35433   1.00
H2       0.65101    0.17711    0.34585   1.00
C5       0.65931    0.11796    0.32250   1.00
H2       0.64189    0.09585    0.30641   1.00
H2       0.67109    0.10434    0.34955   1.00
H2       0.68506    0.12678    0.30450   1.00
C5       0.50980    0.32148    0.35459   1.00
H2       0.48782    0.34369    0.36354   1.00
H2       0.53045    0.33625    0.33428   1.00
C5       0.53197    0.30560    0.39029   1.00
H2       0.54334    0.33020    0.40809   1.00
C5       1.13227    0.17260    0.35070   1.00
H2       1.14755    0.15734    0.32654   1.00
H2       1.11099    0.15124    0.36261   1.00
C5       1.16219    0.18437    0.38241   1.00
H2       1.16890    0.15921    0.40185   1.00
H2       1.15040    0.20876    0.40033   1.00
O_3      0.98000    0.29790    0.30207   1.00
C4       1.02100    0.24981    0.24960   1.00
C3c      1.04243    0.22368    0.27277   1.00
H1       1.02725    0.20292    0.29103   1.00
C3d      1.04135    0.27625    0.22559   1.00
C3       1.08354    0.22422    0.27323   1.00
O2       1.10248    0.19476    0.29288   1.00
C3       1.08227    0.27737    0.22654   1.00
H1       1.09657    0.29908    0.20868   1.00
C2       1.10439    0.25143    0.25013   1.00
C5       0.97879    0.33725    0.28992   1.00
H2       0.94838    0.34868    0.28825   1.00
H2       0.99266    0.34093    0.26068   1.00
C5       1.00122    0.36121    0.31973   1.00
H2       1.03129    0.34910    0.32220   1.00
H2       0.98691    0.35762    0.34872   1.00
C5       1.00254    0.40437    0.30798   1.00
H2       0.97260    0.41658    0.30518   1.00
H2       1.01803    0.40813    0.27968   1.00
H2       1.01830    0.42155    0.33054   1.00
C5       1.01105    0.28925    0.16777   1.00
C5       1.11070    0.20670    0.33151   1.00
H2       0.99088    0.26402    0.17089   1.00
H2       1.03712    0.27973    0.15075   1.00
H2       1.08300    0.21294    0.34745   1.00
H2       1.12895    0.23375    0.33262   1.00
H2       1.19055    0.19351    0.36911   1.00
H2       0.94250    0.28749    0.11875   1.00
H2       0.98766    0.28783    0.09092   1.00
C2       0.89605    0.25256    0.25024   1.00
C3       0.91597    0.22669    0.22511   1.00
O2       0.89674    0.20948    0.19422   1.00
C3       0.91826    0.27577    0.27618   1.00
H1       0.90385    0.29512    0.29648   1.00
C3a      0.95713    0.22533    0.22571   1.00
H1       0.97202    0.20702    0.20476   1.00
C3b      0.95922    0.27525    0.27583   1.00
C4       0.97900    0.24997    0.25042   1.00
O_3      1.02167    0.30452    0.20450   1.00
C5       0.88720    0.17048    0.20332   1.00
H2       0.91391    0.15299    0.20986   1.00
C5       0.86666    0.15334    0.16755   1.00
H2       0.86726    0.16905    0.22898   1.00
H2       0.88923    0.14512    0.14567   1.00
H2       0.84899    0.17711    0.15415   1.00
C5       0.84069    0.11796    0.17750   1.00
H2       0.85811    0.09585    0.19359   1.00
H2       0.82891    0.10434    0.15045   1.00
H2       0.81494    0.12678    0.19550   1.00
C5       0.99020    0.32148    0.14541   1.00
H2       1.01218    0.34369    0.13646   1.00
H2       0.96955    0.33625    0.16572   1.00
C5       0.96803    0.30560    0.10971   1.00
H2       0.95666    0.33020    0.09191   1.00
C5       0.64930    -0.13227   0.17260   1.00
H2       0.67346    -0.14755   0.15734   1.00
H2       0.63739    -0.11099   0.15124   1.00
C5       0.61759    -0.16219   0.18437   1.00
H2       0.59815    -0.16890   0.15921   1.00
H2       0.59967    -0.15040   0.20876   1.00
O_3      0.69793    0.02000    0.29790   1.00
C4       0.75040    -0.02100   0.24981   1.00
C3c      0.72723    -0.04243   0.22368   1.00
H1       0.70897    -0.02725   0.20292   1.00
C3d      0.77441    -0.04135   0.27625   1.00
C3       0.72677    -0.08354   0.22422   1.00
O2       0.70712    -0.10248   0.19476   1.00
C3       0.77346    -0.08227   0.27737   1.00
H1       0.79132    -0.09657   0.29908   1.00
C2       0.74987    -0.10439   0.25143   1.00
C5       0.71008    0.02121    0.33725   1.00
H2       0.71175    0.05162    0.34868   1.00
H2       0.73932    0.00734    0.34093   1.00
C5       0.68027    -0.00122   0.36121   1.00
H2       0.67780    -0.03129   0.34910   1.00
H2       0.65128    0.01309    0.35762   1.00
C5       0.69202    -0.00254   0.40437   1.00
H2       0.69482    0.02740    0.41658   1.00
H2       0.72032    -0.01803   0.40813   1.00
H2       0.66946    -0.01830   0.42155   1.00
C5       0.83223    -0.01105   0.28925   1.00
C5       0.66849    -0.11070   0.20670   1.00
H2       0.82911    0.00912    0.26402   1.00
H2       0.84925    -0.03712   0.27973   1.00
H2       0.65255    -0.08300   0.21294   1.00
H2       0.66738    -0.12895   0.23375   1.00
H2       0.63089    -0.19055   0.19351   1.00
H2       0.88125    0.05750    0.28749   1.00
H2       0.90908    0.01234    0.28783   1.00
C2       0.74976    0.10395    0.25256   1.00
C3       0.77489    0.08403    0.22669   1.00
O2       0.80578    0.10326    0.20948   1.00
C3       0.72382    0.08174    0.27577   1.00
H1       0.70352    0.09615    0.29512   1.00
C3a      0.77429    0.04287    0.22533   1.00
H1       0.79524    0.02798    0.20702   1.00
C3b      0.72417    0.04078    0.27525   1.00
C4       0.74958    0.02100    0.24997   1.00
O_3      0.79550    -0.02167   0.30452   1.00
C5       0.79668    0.11280    0.17048   1.00
H2       0.79014    0.08609    0.15299   1.00
C5       0.83245    0.13334    0.15334   1.00
H2       0.77102    0.13274    0.16905   1.00
H2       0.85433    0.11077    0.14512   1.00
H2       0.84585    0.15101    0.17711   1.00
C5       0.82250    0.15931    0.11796   1.00
H2       0.80641    0.14189    0.09585   1.00
H2       0.84955    0.17109    0.10434   1.00
H2       0.80450    0.18506    0.12678   1.00
C5       0.85459    0.00980    0.32148   1.00
H2       0.86354    -0.01218   0.34369   1.00
H2       0.83428    0.03045    0.33625   1.00
C5       0.89029    0.03197    0.30560   1.00
H2       0.90809    0.04334    0.33020   1.00
C5       0.67260    0.14930    -0.13227   1.00
H2       0.65734    0.17346    -0.14755   1.00
H2       0.65124    0.13739    -0.11099   1.00
C5       0.68437    0.11759    -0.16219   1.00
H2       0.65921    0.09815    -0.16890   1.00
H2       0.70876    0.09967    -0.15040   1.00
O_3      0.79790    0.19793    0.02000   1.00
C4       0.74981    0.25040    -0.02100   1.00
C3c      0.72368    0.22723    -0.04243   1.00
H1       0.70292    0.20897    -0.02725   1.00
C3d      0.77625    0.27441    -0.04135   1.00
C3       0.72422    0.22677    -0.08354   1.00
O2       0.69476    0.20712    -0.10248   1.00
C3       0.77737    0.27346    -0.08227   1.00
H1       0.79908    0.29132    -0.09657   1.00
C2       0.75143    0.24987    -0.10439   1.00
C5       0.83725    0.21008    0.02121   1.00
H2       0.84868    0.21175    0.05162   1.00
H2       0.84093    0.23932    0.00734   1.00
C5       0.86121    0.18027    -0.00122   1.00
H2       0.84910    0.17780    -0.03129   1.00
H2       0.85762    0.15128    0.01309   1.00
C5       0.90437    0.19202    -0.00254   1.00
H2       0.91658    0.19482    0.02740   1.00
H2       0.90813    0.22032    -0.01803   1.00
H2       0.92155    0.16946    -0.01830   1.00
C5       0.78925    0.33223    -0.01105   1.00
C5       0.70670    0.16849    -0.11070   1.00
H2       0.76402    0.32911    0.00912   1.00
H2       0.77973    0.34925    -0.03712   1.00
H2       0.71294    0.15255    -0.08300   1.00
H2       0.73375    0.16738    -0.12895   1.00
H2       0.69351    0.13089    -0.19055   1.00
H2       0.78749    0.38125    0.05750   1.00
H2       0.78783    0.40908    0.01234   1.00
C2       0.75256    0.24976    0.10395   1.00
C3       0.72669    0.27489    0.08403   1.00
O2       0.70948    0.30578    0.10326   1.00
C3       0.77577    0.22382    0.08174   1.00
H1       0.79512    0.20352    0.09615   1.00
C3a      0.72533    0.27429    0.04287   1.00
H1       0.70702    0.29524    0.02798   1.00
C3b      0.77525    0.22417    0.04078   1.00
C4       0.74997    0.24958    0.02100   1.00
O_3      0.80452    0.29550    -0.02167   1.00
C5       0.67048    0.29668    0.11280   1.00
H2       0.65299    0.29014    0.08609   1.00
C5       0.65334    0.33245    0.13334   1.00
H2       0.66905    0.27102    0.13274   1.00
H2       0.64512    0.35433    0.11077   1.00
H2       0.67711    0.34585    0.15101   1.00
C5       0.61796    0.32250    0.15931   1.00
H2       0.59585    0.30641    0.14189   1.00
H2       0.60434    0.34955    0.17109   1.00
H2       0.62678    0.30450    0.18506   1.00
C5       0.82148    0.35459    0.00980   1.00
H2       0.84369    0.36354    -0.01218   1.00
H2       0.83625    0.33428    0.03045   1.00
C5       0.80560    0.39029    0.03197   1.00
H2       0.83020    0.40809    0.04334   1.00
