data_IRMOF10_SG202_Ligand8_label_r.

_audit_creation_method             'generated by an auxiliary program of Tobunporous'

_symmetry_space_group_name_H-M     'P 1'
_symmetry_Int_Tables_number        1
_symmetry_cell_setting             triclinic

_cell_length_a                    34.2800
_cell_length_b                    34.2800
_cell_length_c                    34.2800
_cell_angle_alpha                 90.0000
_cell_angle_beta                  90.0000
_cell_angle_gamma                 90.0000

loop_
_atom_site_label
_atom_site_fract_x
_atom_site_fract_y
_atom_site_fract_z
_atom_site_occupancy
O1       0.75000    0.75000    0.75000   1.00
Zn1      0.71720    0.78280    0.78280   1.00
Zn1      0.78280    0.71720    0.78280   1.00
Zn1      0.78280    0.78280    0.71720   1.00
Zn1      0.71720    0.71720    0.71720   1.00
O2       0.72650    0.77350    0.83820   1.00
O2       0.72650    0.83820    0.77350   1.00
O2       0.66180    0.77350    0.77350   1.00
O2       0.77350    0.72650    0.83820   1.00
O2       0.83820    0.72650    0.77350   1.00
O2       0.77350    0.66180    0.77350   1.00
O2       0.77350    0.83820    0.72650   1.00
O2       0.83820    0.77350    0.72650   1.00
O2       0.77350    0.77350    0.66180   1.00
O2       0.66180    0.72650    0.72650   1.00
O2       0.72650    0.66180    0.72650   1.00
O2       0.72650    0.72650    0.66180   1.00
C1       0.75000    0.75000    0.85520   1.00
C1       0.75000    0.85520    0.75000   1.00
C1       0.64480    0.75000    0.75000   1.00
C1       0.85520    0.75000    0.75000   1.00
C1       0.75000    0.64480    0.75000   1.00
C1       0.75000    0.75000    0.64480   1.00
O1       0.25000    0.25000    0.75000   1.00
Zn1      0.21720    0.28280    0.78280   1.00
Zn1      0.28280    0.21720    0.78280   1.00
Zn1      0.28280    0.28280    0.71720   1.00
Zn1      0.21720    0.21720    0.71720   1.00
O2       0.22650    0.27350    0.83820   1.00
O2       0.22650    0.33820    0.77350   1.00
O2       0.16180    0.27350    0.77350   1.00
O2       0.27350    0.22650    0.83820   1.00
O2       0.33820    0.22650    0.77350   1.00
O2       0.27350    0.16180    0.77350   1.00
O2       0.27350    0.33820    0.72650   1.00
O2       0.33820    0.27350    0.72650   1.00
O2       0.27350    0.27350    0.66180   1.00
O2       0.16180    0.22650    0.72650   1.00
O2       0.22650    0.16180    0.72650   1.00
O2       0.22650    0.22650    0.66180   1.00
C1       0.25000    0.25000    0.85520   1.00
C1       0.25000    0.35520    0.75000   1.00
C1       0.14480    0.25000    0.75000   1.00
C1       0.35520    0.25000    0.75000   1.00
C1       0.25000    0.14480    0.75000   1.00
C1       0.25000    0.25000    0.64480   1.00
O1       0.25000    0.75000    0.25000   1.00
Zn1      0.21720    0.78280    0.28280   1.00
Zn1      0.28280    0.71720    0.28280   1.00
Zn1      0.28280    0.78280    0.21720   1.00
Zn1      0.21720    0.71720    0.21720   1.00
O2       0.22650    0.77350    0.33820   1.00
O2       0.22650    0.83820    0.27350   1.00
O2       0.16180    0.77350    0.27350   1.00
O2       0.27350    0.72650    0.33820   1.00
O2       0.33820    0.72650    0.27350   1.00
O2       0.27350    0.66180    0.27350   1.00
O2       0.27350    0.83820    0.22650   1.00
O2       0.33820    0.77350    0.22650   1.00
O2       0.27350    0.77350    0.16180   1.00
O2       0.16180    0.72650    0.22650   1.00
O2       0.22650    0.66180    0.22650   1.00
O2       0.22650    0.72650    0.16180   1.00
C1       0.25000    0.75000    0.35520   1.00
C1       0.25000    0.85520    0.25000   1.00
C1       0.14480    0.75000    0.25000   1.00
C1       0.35520    0.75000    0.25000   1.00
C1       0.25000    0.64480    0.25000   1.00
C1       0.25000    0.75000    0.14480   1.00
O1       0.75000    0.25000    0.25000   1.00
Zn1      0.71720    0.28280    0.28280   1.00
Zn1      0.78280    0.21720    0.28280   1.00
Zn1      0.78280    0.28280    0.21720   1.00
Zn1      0.71720    0.21720    0.21720   1.00
O2       0.72650    0.27350    0.33820   1.00
O2       0.72650    0.33820    0.27350   1.00
O2       0.66180    0.27350    0.27350   1.00
O2       0.77350    0.22650    0.33820   1.00
O2       0.83820    0.22650    0.27350   1.00
O2       0.77350    0.16180    0.27350   1.00
O2       0.77350    0.33820    0.22650   1.00
O2       0.83820    0.27350    0.22650   1.00
O2       0.77350    0.27350    0.16180   1.00
O2       0.66180    0.22650    0.22650   1.00
O2       0.72650    0.16180    0.22650   1.00
O2       0.72650    0.22650    0.16180   1.00
C1       0.75000    0.25000    0.35520   1.00
C1       0.75000    0.35520    0.25000   1.00
C1       0.64480    0.25000    0.25000   1.00
C1       0.85520    0.25000    0.25000   1.00
C1       0.75000    0.14480    0.25000   1.00
C1       0.75000    0.25000    0.14480   1.00
O1       0.25000    0.25000    0.25000   1.00
Zn1      0.28280    0.21720    0.21720   1.00
Zn1      0.21720    0.28280    0.21720   1.00
Zn1      0.21720    0.21720    0.28280   1.00
Zn1      0.28280    0.28280    0.28280   1.00
O2       0.27350    0.22650    0.16180   1.00
O2       0.27350    0.16180    0.22650   1.00
O2       0.33820    0.22650    0.22650   1.00
O2       0.22650    0.27350    0.16180   1.00
O2       0.16180    0.27350    0.22650   1.00
O2       0.22650    0.33820    0.22650   1.00
O2       0.22650    0.16180    0.27350   1.00
O2       0.16180    0.22650    0.27350   1.00
O2       0.22650    0.22650    0.33820   1.00
O2       0.33820    0.27350    0.27350   1.00
O2       0.27350    0.33820    0.27350   1.00
O2       0.27350    0.27350    0.33820   1.00
C1       0.25000    0.25000    0.14480   1.00
C1       0.25000    0.14480    0.25000   1.00
C1       0.35520    0.25000    0.25000   1.00
C1       0.14480    0.25000    0.25000   1.00
C1       0.25000    0.35520    0.25000   1.00
C1       0.25000    0.25000    0.35520   1.00
O1       0.75000    0.75000    0.25000   1.00
Zn1      0.78280    0.71720    0.21720   1.00
Zn1      0.71720    0.78280    0.21720   1.00
Zn1      0.71720    0.71720    0.28280   1.00
Zn1      0.78280    0.78280    0.28280   1.00
O2       0.77350    0.72650    0.16180   1.00
O2       0.77350    0.66180    0.22650   1.00
O2       0.83820    0.72650    0.22650   1.00
O2       0.72650    0.77350    0.16180   1.00
O2       0.66180    0.77350    0.22650   1.00
O2       0.72650    0.83820    0.22650   1.00
O2       0.72650    0.66180    0.27350   1.00
O2       0.66180    0.72650    0.27350   1.00
O2       0.72650    0.72650    0.33820   1.00
O2       0.83820    0.77350    0.27350   1.00
O2       0.77350    0.83820    0.27350   1.00
O2       0.77350    0.77350    0.33820   1.00
C1       0.75000    0.75000    0.14480   1.00
C1       0.75000    0.64480    0.25000   1.00
C1       0.85520    0.75000    0.25000   1.00
C1       0.64480    0.75000    0.25000   1.00
C1       0.75000    0.85520    0.25000   1.00
C1       0.75000    0.75000    0.35520   1.00
O1       0.75000    0.25000    0.75000   1.00
Zn1      0.78280    0.21720    0.71720   1.00
Zn1      0.71720    0.28280    0.71720   1.00
Zn1      0.71720    0.21720    0.78280   1.00
Zn1      0.78280    0.28280    0.78280   1.00
O2       0.77350    0.22650    0.66180   1.00
O2       0.77350    0.16180    0.72650   1.00
O2       0.83820    0.22650    0.72650   1.00
O2       0.72650    0.27350    0.66180   1.00
O2       0.66180    0.27350    0.72650   1.00
O2       0.72650    0.33820    0.72650   1.00
O2       0.72650    0.16180    0.77350   1.00
O2       0.66180    0.22650    0.77350   1.00
O2       0.72650    0.22650    0.83820   1.00
O2       0.83820    0.27350    0.77350   1.00
O2       0.77350    0.33820    0.77350   1.00
O2       0.77350    0.27350    0.83820   1.00
C1       0.75000    0.25000    0.64480   1.00
C1       0.75000    0.14480    0.75000   1.00
C1       0.85520    0.25000    0.75000   1.00
C1       0.64480    0.25000    0.75000   1.00
C1       0.75000    0.35520    0.75000   1.00
C1       0.75000    0.25000    0.85520   1.00
O1       0.25000    0.75000    0.75000   1.00
Zn1      0.28280    0.71720    0.71720   1.00
Zn1      0.21720    0.78280    0.71720   1.00
Zn1      0.21720    0.71720    0.78280   1.00
Zn1      0.28280    0.78280    0.78280   1.00
O2       0.27350    0.72650    0.66180   1.00
O2       0.27350    0.66180    0.72650   1.00
O2       0.33820    0.72650    0.72650   1.00
O2       0.22650    0.77350    0.66180   1.00
O2       0.16180    0.77350    0.72650   1.00
O2       0.22650    0.83820    0.72650   1.00
O2       0.22650    0.66180    0.77350   1.00
O2       0.16180    0.72650    0.77350   1.00
O2       0.22650    0.72650    0.83820   1.00
O2       0.33820    0.77350    0.77350   1.00
O2       0.27350    0.83820    0.77350   1.00
O2       0.27350    0.77350    0.83820   1.00
C1       0.25000    0.75000    0.64480   1.00
C1       0.25000    0.64480    0.75000   1.00
C1       0.35520    0.75000    0.75000   1.00
C1       0.14480    0.75000    0.75000   1.00
C1       0.25000    0.85520    0.75000   1.00
C1       0.25000    0.75000    0.85520   1.00
C4       0.74993    0.74993    0.97915   1.00
C4       0.75007    0.75007    1.02085   1.00
C3       0.75059    0.71515    0.95708   1.00
C3       0.71552    0.75679    1.04225   1.00
C3       0.74908    0.78540    0.95816   1.00
C3a      0.78489    0.74292    1.04263   1.00
C2       0.75029    0.75148    0.89483   1.00
C2       0.74941    0.74865    1.10517   1.00
C3       0.75078    0.71598    0.91566   1.00
C3       0.71526    0.75606    1.08359   1.00
C3       0.74943    0.78614    0.91680   1.00
C3       0.78398    0.74220    1.08415   1.00
H1       0.75098    0.68727    0.97192   1.00
H1       0.68848    0.76235    1.02685   1.00
H1       0.75137    0.68875    0.89968   1.00
H1       0.68814    0.76125    1.09895   1.00
H1       0.74931    0.81394    0.90179   1.00
H1       0.81053    0.73689    1.10043   1.00
C5       0.82368    0.73676    1.02239   1.00
H1       0.74919    0.81273    0.97401   1.00
H2       0.84656    0.72776    1.04354   1.00
H2       0.82089    0.71253    1.00103   1.00
N1       0.83641    0.77258    1.00292   1.00
C6       0.84303    0.80728    1.02012   1.00
C6       0.84402    0.77673    0.96460   1.00
C6       0.85465    0.83405    0.99243   1.00
C6       0.85526    0.81462    0.95711   1.00
H3       0.83940    0.81298    1.05099   1.00
H3       0.84112    0.75376    0.94309   1.00
H3       0.86190    0.86435    0.99741   1.00
H3       0.86300    0.82673    0.92903   1.00
C4       0.74993    0.97915    0.74993   1.00
C4       0.75007    1.02085    0.75007   1.00
C3       0.71515    0.95708    0.75059   1.00
C3       0.75679    1.04225    0.71552   1.00
C3       0.78540    0.95816    0.74908   1.00
C3a      0.74292    1.04263    0.78489   1.00
C2       0.75148    0.89483    0.75029   1.00
C2       0.74865    1.10517    0.74941   1.00
C3       0.71598    0.91566    0.75078   1.00
C3       0.75606    1.08359    0.71526   1.00
C3       0.78614    0.91680    0.74943   1.00
C3       0.74220    1.08415    0.78398   1.00
H1       0.68727    0.97192    0.75098   1.00
H1       0.76235    1.02685    0.68848   1.00
H1       0.68875    0.89968    0.75137   1.00
H1       0.76125    1.09895    0.68814   1.00
H1       0.81394    0.90179    0.74931   1.00
H1       0.73689    1.10043    0.81053   1.00
C5       0.73676    1.02239    0.82368   1.00
H1       0.81273    0.97401    0.74919   1.00
H2       0.72776    1.04354    0.84656   1.00
H2       0.71253    1.00103    0.82089   1.00
N1       0.77258    1.00292    0.83641   1.00
C6       0.80728    1.02012    0.84303   1.00
C6       0.77673    0.96460    0.84402   1.00
C6       0.83405    0.99243    0.85465   1.00
C6       0.81462    0.95711    0.85526   1.00
H3       0.81298    1.05099    0.83940   1.00
H3       0.75376    0.94309    0.84112   1.00
H3       0.86435    0.99741    0.86190   1.00
H3       0.82673    0.92903    0.86300   1.00
C4       0.52085    0.74993    0.75007   1.00
C4       0.47915    0.75007    0.74993   1.00
C3       0.54292    0.75059    0.78485   1.00
C3       0.45775    0.71552    0.74321   1.00
C3       0.54184    0.74908    0.71460   1.00
C3a      0.45737    0.78489    0.75708   1.00
C2       0.60517    0.75029    0.74852   1.00
C2       0.39483    0.74941    0.75135   1.00
C3       0.58434    0.75078    0.78402   1.00
C3       0.41641    0.71526    0.74394   1.00
C3       0.58320    0.74943    0.71386   1.00
C3       0.41585    0.78398    0.75780   1.00
H1       0.52808    0.75098    0.81273   1.00
H1       0.47315    0.68848    0.73765   1.00
H1       0.60032    0.75137    0.81125   1.00
H1       0.40105    0.68814    0.73875   1.00
H1       0.59821    0.74931    0.68606   1.00
H1       0.39957    0.81053    0.76311   1.00
C5       0.47761    0.82368    0.76324   1.00
H1       0.52599    0.74919    0.68727   1.00
H2       0.45646    0.84656    0.77224   1.00
H2       0.49897    0.82089    0.78747   1.00
N1       0.49708    0.83641    0.72742   1.00
C6       0.47988    0.84303    0.69272   1.00
C6       0.53540    0.84402    0.72327   1.00
C6       0.50757    0.85465    0.66595   1.00
C6       0.54289    0.85526    0.68538   1.00
H3       0.44901    0.83940    0.68702   1.00
H3       0.55691    0.84112    0.74624   1.00
H3       0.50259    0.86190    0.63565   1.00
H3       0.57097    0.86300    0.67327   1.00
C4       0.97915    0.74993    0.74993   1.00
C4       1.02085    0.75007    0.75007   1.00
C3       0.95708    0.75059    0.71515   1.00
C3       1.04225    0.71552    0.75679   1.00
C3       0.95816    0.74908    0.78540   1.00
C3a      1.04263    0.78489    0.74292   1.00
C2       0.89483    0.75029    0.75148   1.00
C2       1.10517    0.74941    0.74865   1.00
C3       0.91566    0.75078    0.71598   1.00
C3       1.08359    0.71526    0.75606   1.00
C3       0.91680    0.74943    0.78614   1.00
C3       1.08415    0.78398    0.74220   1.00
H1       0.97192    0.75098    0.68727   1.00
H1       1.02685    0.68848    0.76235   1.00
H1       0.89968    0.75137    0.68875   1.00
H1       1.09895    0.68814    0.76125   1.00
H1       0.90179    0.74931    0.81394   1.00
H1       1.10043    0.81053    0.73689   1.00
C5       1.02239    0.82368    0.73676   1.00
H1       0.97401    0.74919    0.81273   1.00
H2       1.04354    0.84656    0.72776   1.00
H2       1.00103    0.82089    0.71253   1.00
N1       1.00292    0.83641    0.77258   1.00
C6       1.02012    0.84303    0.80728   1.00
C6       0.96460    0.84402    0.77673   1.00
C6       0.99243    0.85465    0.83405   1.00
C6       0.95711    0.85526    0.81462   1.00
H3       1.05099    0.83940    0.81298   1.00
H3       0.94309    0.84112    0.75376   1.00
H3       0.99741    0.86190    0.86435   1.00
H3       0.92903    0.86300    0.82673   1.00
C4       0.75007    0.52085    0.74993   1.00
C4       0.74993    0.47915    0.75007   1.00
C3       0.78485    0.54292    0.75059   1.00
C3       0.74321    0.45775    0.71552   1.00
C3       0.71460    0.54184    0.74908   1.00
C3a      0.75708    0.45737    0.78489   1.00
C2       0.74852    0.60517    0.75029   1.00
C2       0.75135    0.39483    0.74941   1.00
C3       0.78402    0.58434    0.75078   1.00
C3       0.74394    0.41641    0.71526   1.00
C3       0.71386    0.58320    0.74943   1.00
C3       0.75780    0.41585    0.78398   1.00
H1       0.81273    0.52808    0.75098   1.00
H1       0.73765    0.47315    0.68848   1.00
H1       0.81125    0.60032    0.75137   1.00
H1       0.73875    0.40105    0.68814   1.00
H1       0.68606    0.59821    0.74931   1.00
H1       0.76311    0.39957    0.81053   1.00
C5       0.76324    0.47761    0.82368   1.00
H1       0.68727    0.52599    0.74919   1.00
H2       0.77224    0.45646    0.84656   1.00
H2       0.78747    0.49897    0.82089   1.00
N1       0.72742    0.49708    0.83641   1.00
C6       0.69272    0.47988    0.84303   1.00
C6       0.72327    0.53540    0.84402   1.00
C6       0.66595    0.50757    0.85465   1.00
C6       0.68538    0.54289    0.85526   1.00
H3       0.68702    0.44901    0.83940   1.00
H3       0.74624    0.55691    0.84112   1.00
H3       0.63565    0.50259    0.86190   1.00
H3       0.67327    0.57097    0.86300   1.00
C4       0.74993    0.75007    0.52085   1.00
C4       0.75007    0.74993    0.47915   1.00
C3       0.75059    0.78485    0.54292   1.00
C3       0.71552    0.74321    0.45775   1.00
C3       0.74908    0.71460    0.54184   1.00
C3a      0.78489    0.75708    0.45737   1.00
C2       0.75029    0.74852    0.60517   1.00
C2       0.74941    0.75135    0.39483   1.00
C3       0.75078    0.78402    0.58434   1.00
C3       0.71526    0.74394    0.41641   1.00
C3       0.74943    0.71386    0.58320   1.00
C3       0.78398    0.75780    0.41585   1.00
H1       0.75098    0.81273    0.52808   1.00
H1       0.68848    0.73765    0.47315   1.00
H1       0.75137    0.81125    0.60032   1.00
H1       0.68814    0.73875    0.40105   1.00
H1       0.74931    0.68606    0.59821   1.00
H1       0.81053    0.76311    0.39957   1.00
C5       0.82368    0.76324    0.47761   1.00
H1       0.74919    0.68727    0.52599   1.00
H2       0.84656    0.77224    0.45646   1.00
H2       0.82089    0.78747    0.49897   1.00
N1       0.83641    0.72742    0.49708   1.00
C6       0.84303    0.69272    0.47988   1.00
C6       0.84402    0.72327    0.53540   1.00
C6       0.85465    0.66595    0.50757   1.00
C6       0.85526    0.68538    0.54289   1.00
H3       0.83940    0.68702    0.44901   1.00
H3       0.84112    0.74624    0.55691   1.00
H3       0.86190    0.63565    0.50259   1.00
H3       0.86300    0.67327    0.57097   1.00
C4       0.24993    0.24993    0.97915   1.00
C4       0.25007    0.25007    1.02085   1.00
C3       0.25059    0.21515    0.95708   1.00
C3       0.21552    0.25679    1.04225   1.00
C3       0.24908    0.28540    0.95816   1.00
C3a      0.28489    0.24292    1.04263   1.00
C2       0.25029    0.25148    0.89483   1.00
C2       0.24941    0.24865    1.10517   1.00
C3       0.25078    0.21598    0.91566   1.00
C3       0.21526    0.25606    1.08359   1.00
C3       0.24943    0.28614    0.91680   1.00
C3       0.28398    0.24220    1.08415   1.00
H1       0.25098    0.18727    0.97192   1.00
H1       0.18848    0.26235    1.02685   1.00
H1       0.25137    0.18875    0.89968   1.00
H1       0.18814    0.26125    1.09895   1.00
H1       0.24931    0.31394    0.90179   1.00
H1       0.31053    0.23689    1.10043   1.00
C5       0.32368    0.23676    1.02239   1.00
H1       0.24919    0.31273    0.97401   1.00
H2       0.34656    0.22776    1.04354   1.00
H2       0.32089    0.21253    1.00103   1.00
N1       0.33641    0.27258    1.00292   1.00
C6       0.34303    0.30728    1.02012   1.00
C6       0.34402    0.27673    0.96460   1.00
C6       0.35465    0.33405    0.99243   1.00
C6       0.35526    0.31462    0.95711   1.00
H3       0.33940    0.31298    1.05099   1.00
H3       0.34112    0.25376    0.94309   1.00
H3       0.36190    0.36435    0.99741   1.00
H3       0.36300    0.32673    0.92903   1.00
C4       0.24993    0.47915    0.74993   1.00
C4       0.25007    0.52085    0.75007   1.00
C3       0.21515    0.45708    0.75059   1.00
C3       0.25679    0.54225    0.71552   1.00
C3       0.28540    0.45816    0.74908   1.00
C3a      0.24292    0.54263    0.78489   1.00
C2       0.25148    0.39483    0.75029   1.00
C2       0.24865    0.60517    0.74941   1.00
C3       0.21598    0.41566    0.75078   1.00
C3       0.25606    0.58359    0.71526   1.00
C3       0.28614    0.41680    0.74943   1.00
C3       0.24220    0.58415    0.78398   1.00
H1       0.18727    0.47192    0.75098   1.00
H1       0.26235    0.52685    0.68848   1.00
H1       0.18875    0.39968    0.75137   1.00
H1       0.26125    0.59895    0.68814   1.00
H1       0.31394    0.40179    0.74931   1.00
H1       0.23689    0.60043    0.81053   1.00
C5       0.23676    0.52239    0.82368   1.00
H1       0.31273    0.47401    0.74919   1.00
H2       0.22776    0.54354    0.84656   1.00
H2       0.21253    0.50103    0.82089   1.00
N1       0.27258    0.50292    0.83641   1.00
C6       0.30728    0.52012    0.84303   1.00
C6       0.27673    0.46460    0.84402   1.00
C6       0.33405    0.49243    0.85465   1.00
C6       0.31462    0.45711    0.85526   1.00
H3       0.31298    0.55099    0.83940   1.00
H3       0.25376    0.44309    0.84112   1.00
H3       0.36435    0.49741    0.86190   1.00
H3       0.32673    0.42903    0.86300   1.00
C4       0.02085    0.24993    0.75007   1.00
C4       -0.02085   0.25007    0.74993   1.00
C3       0.04292    0.25059    0.78485   1.00
C3       -0.04225   0.21552    0.74321   1.00
C3       0.04184    0.24908    0.71460   1.00
C3a      -0.04263   0.28489    0.75708   1.00
C2       0.10517    0.25029    0.74852   1.00
C2       -0.10517   0.24941    0.75135   1.00
C3       0.08434    0.25078    0.78402   1.00
C3       -0.08359   0.21526    0.74394   1.00
C3       0.08320    0.24943    0.71386   1.00
C3       -0.08415   0.28398    0.75780   1.00
H1       0.02808    0.25098    0.81273   1.00
H1       -0.02685   0.18848    0.73765   1.00
H1       0.10032    0.25137    0.81125   1.00
H1       -0.09895   0.18814    0.73875   1.00
H1       0.09821    0.24931    0.68606   1.00
H1       -0.10043   0.31053    0.76311   1.00
C5       -0.02239   0.32368    0.76324   1.00
H1       0.02599    0.24919    0.68727   1.00
H2       -0.04354   0.34656    0.77224   1.00
H2       -0.00103   0.32089    0.78747   1.00
N1       -0.00292   0.33641    0.72742   1.00
C6       -0.02012   0.34303    0.69272   1.00
C6       0.03540    0.34402    0.72327   1.00
C6       0.00757    0.35465    0.66595   1.00
C6       0.04289    0.35526    0.68538   1.00
H3       -0.05099   0.33940    0.68702   1.00
H3       0.05691    0.34112    0.74624   1.00
H3       0.00259    0.36190    0.63565   1.00
H3       0.07097    0.36300    0.67327   1.00
C4       0.47915    0.24993    0.74993   1.00
C4       0.52085    0.25007    0.75007   1.00
C3       0.45708    0.25059    0.71515   1.00
C3       0.54225    0.21552    0.75679   1.00
C3       0.45816    0.24908    0.78540   1.00
C3a      0.54263    0.28489    0.74292   1.00
C2       0.39483    0.25029    0.75148   1.00
C2       0.60517    0.24941    0.74865   1.00
C3       0.41566    0.25078    0.71598   1.00
C3       0.58359    0.21526    0.75606   1.00
C3       0.41680    0.24943    0.78614   1.00
C3       0.58415    0.28398    0.74220   1.00
H1       0.47192    0.25098    0.68727   1.00
H1       0.52685    0.18848    0.76235   1.00
H1       0.39968    0.25137    0.68875   1.00
H1       0.59895    0.18814    0.76125   1.00
H1       0.40179    0.24931    0.81394   1.00
H1       0.60043    0.31053    0.73689   1.00
C5       0.52239    0.32368    0.73676   1.00
H1       0.47401    0.24919    0.81273   1.00
H2       0.54354    0.34656    0.72776   1.00
H2       0.50103    0.32089    0.71253   1.00
N1       0.50292    0.33641    0.77258   1.00
C6       0.52012    0.34303    0.80728   1.00
C6       0.46460    0.34402    0.77673   1.00
C6       0.49243    0.35465    0.83405   1.00
C6       0.45711    0.35526    0.81462   1.00
H3       0.55099    0.33940    0.81298   1.00
H3       0.44309    0.34112    0.75376   1.00
H3       0.49741    0.36190    0.86435   1.00
H3       0.42903    0.36300    0.82673   1.00
C4       0.25007    0.02085    0.74993   1.00
C4       0.24993    -0.02085   0.75007   1.00
C3       0.28485    0.04292    0.75059   1.00
C3       0.24321    -0.04225   0.71552   1.00
C3       0.21460    0.04184    0.74908   1.00
C3a      0.25708    -0.04263   0.78489   1.00
C2       0.24852    0.10517    0.75029   1.00
C2       0.25135    -0.10517   0.74941   1.00
C3       0.28402    0.08434    0.75078   1.00
C3       0.24394    -0.08359   0.71526   1.00
C3       0.21386    0.08320    0.74943   1.00
C3       0.25780    -0.08415   0.78398   1.00
H1       0.31273    0.02808    0.75098   1.00
H1       0.23765    -0.02685   0.68848   1.00
H1       0.31125    0.10032    0.75137   1.00
H1       0.23875    -0.09895   0.68814   1.00
H1       0.18606    0.09821    0.74931   1.00
H1       0.26311    -0.10043   0.81053   1.00
C5       0.26324    -0.02239   0.82368   1.00
H1       0.18727    0.02599    0.74919   1.00
H2       0.27224    -0.04354   0.84656   1.00
H2       0.28747    -0.00103   0.82089   1.00
N1       0.22742    -0.00292   0.83641   1.00
C6       0.19272    -0.02012   0.84303   1.00
C6       0.22327    0.03540    0.84402   1.00
C6       0.16595    0.00757    0.85465   1.00
C6       0.18538    0.04289    0.85526   1.00
H3       0.18702    -0.05099   0.83940   1.00
H3       0.24624    0.05691    0.84112   1.00
H3       0.13565    0.00259    0.86190   1.00
H3       0.17327    0.07097    0.86300   1.00
C4       0.24993    0.25007    0.52085   1.00
C4       0.25007    0.24993    0.47915   1.00
C3       0.25059    0.28485    0.54292   1.00
C3       0.21552    0.24321    0.45775   1.00
C3       0.24908    0.21460    0.54184   1.00
C3a      0.28489    0.25708    0.45737   1.00
C2       0.25029    0.24852    0.60517   1.00
C2       0.24941    0.25135    0.39483   1.00
C3       0.25078    0.28402    0.58434   1.00
C3       0.21526    0.24394    0.41641   1.00
C3       0.24943    0.21386    0.58320   1.00
C3       0.28398    0.25780    0.41585   1.00
H1       0.25098    0.31273    0.52808   1.00
H1       0.18848    0.23765    0.47315   1.00
H1       0.25137    0.31125    0.60032   1.00
H1       0.18814    0.23875    0.40105   1.00
H1       0.24931    0.18606    0.59821   1.00
H1       0.31053    0.26311    0.39957   1.00
C5       0.32368    0.26324    0.47761   1.00
H1       0.24919    0.18727    0.52599   1.00
H2       0.34656    0.27224    0.45646   1.00
H2       0.32089    0.28747    0.49897   1.00
N1       0.33641    0.22742    0.49708   1.00
C6       0.34303    0.19272    0.47988   1.00
C6       0.34402    0.22327    0.53540   1.00
C6       0.35465    0.16595    0.50757   1.00
C6       0.35526    0.18538    0.54289   1.00
H3       0.33940    0.18702    0.44901   1.00
H3       0.34112    0.24624    0.55691   1.00
H3       0.36190    0.13565    0.50259   1.00
H3       0.36300    0.17327    0.57097   1.00
C4       0.24993    0.74993    0.47915   1.00
C4       0.25007    0.75007    0.52085   1.00
C3       0.25059    0.71515    0.45708   1.00
C3       0.21552    0.75679    0.54225   1.00
C3       0.24908    0.78540    0.45816   1.00
C3a      0.28489    0.74292    0.54263   1.00
C2       0.25029    0.75148    0.39483   1.00
C2       0.24941    0.74865    0.60517   1.00
C3       0.25078    0.71598    0.41566   1.00
C3       0.21526    0.75606    0.58359   1.00
C3       0.24943    0.78614    0.41680   1.00
C3       0.28398    0.74220    0.58415   1.00
H1       0.25098    0.68727    0.47192   1.00
H1       0.18848    0.76235    0.52685   1.00
H1       0.25137    0.68875    0.39968   1.00
H1       0.18814    0.76125    0.59895   1.00
H1       0.24931    0.81394    0.40179   1.00
H1       0.31053    0.73689    0.60043   1.00
C5       0.32368    0.73676    0.52239   1.00
H1       0.24919    0.81273    0.47401   1.00
H2       0.34656    0.72776    0.54354   1.00
H2       0.32089    0.71253    0.50103   1.00
N1       0.33641    0.77258    0.50292   1.00
C6       0.34303    0.80728    0.52012   1.00
C6       0.34402    0.77673    0.46460   1.00
C6       0.35465    0.83405    0.49243   1.00
C6       0.35526    0.81462    0.45711   1.00
H3       0.33940    0.81298    0.55099   1.00
H3       0.34112    0.75376    0.44309   1.00
H3       0.36190    0.86435    0.49741   1.00
H3       0.36300    0.82673    0.42903   1.00
C4       0.24993    0.97915    0.24993   1.00
C4       0.25007    1.02085    0.25007   1.00
C3       0.21515    0.95708    0.25059   1.00
C3       0.25679    1.04225    0.21552   1.00
C3       0.28540    0.95816    0.24908   1.00
C3a      0.24292    1.04263    0.28489   1.00
C2       0.25148    0.89483    0.25029   1.00
C2       0.24865    1.10517    0.24941   1.00
C3       0.21598    0.91566    0.25078   1.00
C3       0.25606    1.08359    0.21526   1.00
C3       0.28614    0.91680    0.24943   1.00
C3       0.24220    1.08415    0.28398   1.00
H1       0.18727    0.97192    0.25098   1.00
H1       0.26235    1.02685    0.18848   1.00
H1       0.18875    0.89968    0.25137   1.00
H1       0.26125    1.09895    0.18814   1.00
H1       0.31394    0.90179    0.24931   1.00
H1       0.23689    1.10043    0.31053   1.00
C5       0.23676    1.02239    0.32368   1.00
H1       0.31273    0.97401    0.24919   1.00
H2       0.22776    1.04354    0.34656   1.00
H2       0.21253    1.00103    0.32089   1.00
N1       0.27258    1.00292    0.33641   1.00
C6       0.30728    1.02012    0.34303   1.00
C6       0.27673    0.96460    0.34402   1.00
C6       0.33405    0.99243    0.35465   1.00
C6       0.31462    0.95711    0.35526   1.00
H3       0.31298    1.05099    0.33940   1.00
H3       0.25376    0.94309    0.34112   1.00
H3       0.36435    0.99741    0.36190   1.00
H3       0.32673    0.92903    0.36300   1.00
C4       0.02085    0.74993    0.25007   1.00
C4       -0.02085   0.75007    0.24993   1.00
C3       0.04292    0.75059    0.28485   1.00
C3       -0.04225   0.71552    0.24321   1.00
C3       0.04184    0.74908    0.21460   1.00
C3a      -0.04263   0.78489    0.25708   1.00
C2       0.10517    0.75029    0.24852   1.00
C2       -0.10517   0.74941    0.25135   1.00
C3       0.08434    0.75078    0.28402   1.00
C3       -0.08359   0.71526    0.24394   1.00
C3       0.08320    0.74943    0.21386   1.00
C3       -0.08415   0.78398    0.25780   1.00
H1       0.02808    0.75098    0.31273   1.00
H1       -0.02685   0.68848    0.23765   1.00
H1       0.10032    0.75137    0.31125   1.00
H1       -0.09895   0.68814    0.23875   1.00
H1       0.09821    0.74931    0.18606   1.00
H1       -0.10043   0.81053    0.26311   1.00
C5       -0.02239   0.82368    0.26324   1.00
H1       0.02599    0.74919    0.18727   1.00
H2       -0.04354   0.84656    0.27224   1.00
H2       -0.00103   0.82089    0.28747   1.00
N1       -0.00292   0.83641    0.22742   1.00
C6       -0.02012   0.84303    0.19272   1.00
C6       0.03540    0.84402    0.22327   1.00
C6       0.00757    0.85465    0.16595   1.00
C6       0.04289    0.85526    0.18538   1.00
H3       -0.05099   0.83940    0.18702   1.00
H3       0.05691    0.84112    0.24624   1.00
H3       0.00259    0.86190    0.13565   1.00
H3       0.07097    0.86300    0.17327   1.00
C4       0.47915    0.74993    0.24993   1.00
C4       0.52085    0.75007    0.25007   1.00
C3       0.45708    0.75059    0.21515   1.00
C3       0.54225    0.71552    0.25679   1.00
C3       0.45816    0.74908    0.28540   1.00
C3a      0.54263    0.78489    0.24292   1.00
C2       0.39483    0.75029    0.25148   1.00
C2       0.60517    0.74941    0.24865   1.00
C3       0.41566    0.75078    0.21598   1.00
C3       0.58359    0.71526    0.25606   1.00
C3       0.41680    0.74943    0.28614   1.00
C3       0.58415    0.78398    0.24220   1.00
H1       0.47192    0.75098    0.18727   1.00
H1       0.52685    0.68848    0.26235   1.00
H1       0.39968    0.75137    0.18875   1.00
H1       0.59895    0.68814    0.26125   1.00
H1       0.40179    0.74931    0.31394   1.00
H1       0.60043    0.81053    0.23689   1.00
C5       0.52239    0.82368    0.23676   1.00
H1       0.47401    0.74919    0.31273   1.00
H2       0.54354    0.84656    0.22776   1.00
H2       0.50103    0.82089    0.21253   1.00
N1       0.50292    0.83641    0.27258   1.00
C6       0.52012    0.84303    0.30728   1.00
C6       0.46460    0.84402    0.27673   1.00
C6       0.49243    0.85465    0.33405   1.00
C6       0.45711    0.85526    0.31462   1.00
H3       0.55099    0.83940    0.31298   1.00
H3       0.44309    0.84112    0.25376   1.00
H3       0.49741    0.86190    0.36435   1.00
H3       0.42903    0.86300    0.32673   1.00
C4       0.25007    0.52085    0.24993   1.00
C4       0.24993    0.47915    0.25007   1.00
C3       0.28485    0.54292    0.25059   1.00
C3       0.24321    0.45775    0.21552   1.00
C3       0.21460    0.54184    0.24908   1.00
C3a      0.25708    0.45737    0.28489   1.00
C2       0.24852    0.60517    0.25029   1.00
C2       0.25135    0.39483    0.24941   1.00
C3       0.28402    0.58434    0.25078   1.00
C3       0.24394    0.41641    0.21526   1.00
C3       0.21386    0.58320    0.24943   1.00
C3       0.25780    0.41585    0.28398   1.00
H1       0.31273    0.52808    0.25098   1.00
H1       0.23765    0.47315    0.18848   1.00
H1       0.31125    0.60032    0.25137   1.00
H1       0.23875    0.40105    0.18814   1.00
H1       0.18606    0.59821    0.24931   1.00
H1       0.26311    0.39957    0.31053   1.00
C5       0.26324    0.47761    0.32368   1.00
H1       0.18727    0.52599    0.24919   1.00
H2       0.27224    0.45646    0.34656   1.00
H2       0.28747    0.49897    0.32089   1.00
N1       0.22742    0.49708    0.33641   1.00
C6       0.19272    0.47988    0.34303   1.00
C6       0.22327    0.53540    0.34402   1.00
C6       0.16595    0.50757    0.35465   1.00
C6       0.18538    0.54289    0.35526   1.00
H3       0.18702    0.44901    0.33940   1.00
H3       0.24624    0.55691    0.34112   1.00
H3       0.13565    0.50259    0.36190   1.00
H3       0.17327    0.57097    0.36300   1.00
C4       0.24993    0.75007    0.02085   1.00
C4       0.25007    0.74993    -0.02085   1.00
C3       0.25059    0.78485    0.04292   1.00
C3       0.21552    0.74321    -0.04225   1.00
C3       0.24908    0.71460    0.04184   1.00
C3a      0.28489    0.75708    -0.04263   1.00
C2       0.25029    0.74852    0.10517   1.00
C2       0.24941    0.75135    -0.10517   1.00
C3       0.25078    0.78402    0.08434   1.00
C3       0.21526    0.74394    -0.08359   1.00
C3       0.24943    0.71386    0.08320   1.00
C3       0.28398    0.75780    -0.08415   1.00
H1       0.25098    0.81273    0.02808   1.00
H1       0.18848    0.73765    -0.02685   1.00
H1       0.25137    0.81125    0.10032   1.00
H1       0.18814    0.73875    -0.09895   1.00
H1       0.24931    0.68606    0.09821   1.00
H1       0.31053    0.76311    -0.10043   1.00
C5       0.32368    0.76324    -0.02239   1.00
H1       0.24919    0.68727    0.02599   1.00
H2       0.34656    0.77224    -0.04354   1.00
H2       0.32089    0.78747    -0.00103   1.00
N1       0.33641    0.72742    -0.00292   1.00
C6       0.34303    0.69272    -0.02012   1.00
C6       0.34402    0.72327    0.03540   1.00
C6       0.35465    0.66595    0.00757   1.00
C6       0.35526    0.68538    0.04289   1.00
H3       0.33940    0.68702    -0.05099   1.00
H3       0.34112    0.74624    0.05691   1.00
H3       0.36190    0.63565    0.00259   1.00
H3       0.36300    0.67327    0.07097   1.00
C4       0.74993    0.24993    0.47915   1.00
C4       0.75007    0.25007    0.52085   1.00
C3       0.75059    0.21515    0.45708   1.00
C3       0.71552    0.25679    0.54225   1.00
C3       0.74908    0.28540    0.45816   1.00
C3a      0.78489    0.24292    0.54263   1.00
C2       0.75029    0.25148    0.39483   1.00
C2       0.74941    0.24865    0.60517   1.00
C3       0.75078    0.21598    0.41566   1.00
C3       0.71526    0.25606    0.58359   1.00
C3       0.74943    0.28614    0.41680   1.00
C3       0.78398    0.24220    0.58415   1.00
H1       0.75098    0.18727    0.47192   1.00
H1       0.68848    0.26235    0.52685   1.00
H1       0.75137    0.18875    0.39968   1.00
H1       0.68814    0.26125    0.59895   1.00
H1       0.74931    0.31394    0.40179   1.00
H1       0.81053    0.23689    0.60043   1.00
C5       0.82368    0.23676    0.52239   1.00
H1       0.74919    0.31273    0.47401   1.00
H2       0.84656    0.22776    0.54354   1.00
H2       0.82089    0.21253    0.50103   1.00
N1       0.83641    0.27258    0.50292   1.00
C6       0.84303    0.30728    0.52012   1.00
C6       0.84402    0.27673    0.46460   1.00
C6       0.85465    0.33405    0.49243   1.00
C6       0.85526    0.31462    0.45711   1.00
H3       0.83940    0.31298    0.55099   1.00
H3       0.84112    0.25376    0.44309   1.00
H3       0.86190    0.36435    0.49741   1.00
H3       0.86300    0.32673    0.42903   1.00
C4       0.74993    0.47915    0.24993   1.00
C4       0.75007    0.52085    0.25007   1.00
C3       0.71515    0.45708    0.25059   1.00
C3       0.75679    0.54225    0.21552   1.00
C3       0.78540    0.45816    0.24908   1.00
C3a      0.74292    0.54263    0.28489   1.00
C2       0.75148    0.39483    0.25029   1.00
C2       0.74865    0.60517    0.24941   1.00
C3       0.71598    0.41566    0.25078   1.00
C3       0.75606    0.58359    0.21526   1.00
C3       0.78614    0.41680    0.24943   1.00
C3       0.74220    0.58415    0.28398   1.00
H1       0.68727    0.47192    0.25098   1.00
H1       0.76235    0.52685    0.18848   1.00
H1       0.68875    0.39968    0.25137   1.00
H1       0.76125    0.59895    0.18814   1.00
H1       0.81394    0.40179    0.24931   1.00
H1       0.73689    0.60043    0.31053   1.00
C5       0.73676    0.52239    0.32368   1.00
H1       0.81273    0.47401    0.24919   1.00
H2       0.72776    0.54354    0.34656   1.00
H2       0.71253    0.50103    0.32089   1.00
N1       0.77258    0.50292    0.33641   1.00
C6       0.80728    0.52012    0.34303   1.00
C6       0.77673    0.46460    0.34402   1.00
C6       0.83405    0.49243    0.35465   1.00
C6       0.81462    0.45711    0.35526   1.00
H3       0.81298    0.55099    0.33940   1.00
H3       0.75376    0.44309    0.34112   1.00
H3       0.86435    0.49741    0.36190   1.00
H3       0.82673    0.42903    0.36300   1.00
C4       0.52085    0.24993    0.25007   1.00
C4       0.47915    0.25007    0.24993   1.00
C3       0.54292    0.25059    0.28485   1.00
C3       0.45775    0.21552    0.24321   1.00
C3       0.54184    0.24908    0.21460   1.00
C3a      0.45737    0.28489    0.25708   1.00
C2       0.60517    0.25029    0.24852   1.00
C2       0.39483    0.24941    0.25135   1.00
C3       0.58434    0.25078    0.28402   1.00
C3       0.41641    0.21526    0.24394   1.00
C3       0.58320    0.24943    0.21386   1.00
C3       0.41585    0.28398    0.25780   1.00
H1       0.52808    0.25098    0.31273   1.00
H1       0.47315    0.18848    0.23765   1.00
H1       0.60032    0.25137    0.31125   1.00
H1       0.40105    0.18814    0.23875   1.00
H1       0.59821    0.24931    0.18606   1.00
H1       0.39957    0.31053    0.26311   1.00
C5       0.47761    0.32368    0.26324   1.00
H1       0.52599    0.24919    0.18727   1.00
H2       0.45646    0.34656    0.27224   1.00
H2       0.49897    0.32089    0.28747   1.00
N1       0.49708    0.33641    0.22742   1.00
C6       0.47988    0.34303    0.19272   1.00
C6       0.53540    0.34402    0.22327   1.00
C6       0.50757    0.35465    0.16595   1.00
C6       0.54289    0.35526    0.18538   1.00
H3       0.44901    0.33940    0.18702   1.00
H3       0.55691    0.34112    0.24624   1.00
H3       0.50259    0.36190    0.13565   1.00
H3       0.57097    0.36300    0.17327   1.00
C4       0.97915    0.24993    0.24993   1.00
C4       1.02085    0.25007    0.25007   1.00
C3       0.95708    0.25059    0.21515   1.00
C3       1.04225    0.21552    0.25679   1.00
C3       0.95816    0.24908    0.28540   1.00
C3a      1.04263    0.28489    0.24292   1.00
C2       0.89483    0.25029    0.25148   1.00
C2       1.10517    0.24941    0.24865   1.00
C3       0.91566    0.25078    0.21598   1.00
C3       1.08359    0.21526    0.25606   1.00
C3       0.91680    0.24943    0.28614   1.00
C3       1.08415    0.28398    0.24220   1.00
H1       0.97192    0.25098    0.18727   1.00
H1       1.02685    0.18848    0.26235   1.00
H1       0.89968    0.25137    0.18875   1.00
H1       1.09895    0.18814    0.26125   1.00
H1       0.90179    0.24931    0.31394   1.00
H1       1.10043    0.31053    0.23689   1.00
C5       1.02239    0.32368    0.23676   1.00
H1       0.97401    0.24919    0.31273   1.00
H2       1.04354    0.34656    0.22776   1.00
H2       1.00103    0.32089    0.21253   1.00
N1       1.00292    0.33641    0.27258   1.00
C6       1.02012    0.34303    0.30728   1.00
C6       0.96460    0.34402    0.27673   1.00
C6       0.99243    0.35465    0.33405   1.00
C6       0.95711    0.35526    0.31462   1.00
H3       1.05099    0.33940    0.31298   1.00
H3       0.94309    0.34112    0.25376   1.00
H3       0.99741    0.36190    0.36435   1.00
H3       0.92903    0.36300    0.32673   1.00
C4       0.75007    0.02085    0.24993   1.00
C4       0.74993    -0.02085   0.25007   1.00
C3       0.78485    0.04292    0.25059   1.00
C3       0.74321    -0.04225   0.21552   1.00
C3       0.71460    0.04184    0.24908   1.00
C3a      0.75708    -0.04263   0.28489   1.00
C2       0.74852    0.10517    0.25029   1.00
C2       0.75135    -0.10517   0.24941   1.00
C3       0.78402    0.08434    0.25078   1.00
C3       0.74394    -0.08359   0.21526   1.00
C3       0.71386    0.08320    0.24943   1.00
C3       0.75780    -0.08415   0.28398   1.00
H1       0.81273    0.02808    0.25098   1.00
H1       0.73765    -0.02685   0.18848   1.00
H1       0.81125    0.10032    0.25137   1.00
H1       0.73875    -0.09895   0.18814   1.00
H1       0.68606    0.09821    0.24931   1.00
H1       0.76311    -0.10043   0.31053   1.00
C5       0.76324    -0.02239   0.32368   1.00
H1       0.68727    0.02599    0.24919   1.00
H2       0.77224    -0.04354   0.34656   1.00
H2       0.78747    -0.00103   0.32089   1.00
N1       0.72742    -0.00292   0.33641   1.00
C6       0.69272    -0.02012   0.34303   1.00
C6       0.72327    0.03540    0.34402   1.00
C6       0.66595    0.00757    0.35465   1.00
C6       0.68538    0.04289    0.35526   1.00
H3       0.68702    -0.05099   0.33940   1.00
H3       0.74624    0.05691    0.34112   1.00
H3       0.63565    0.00259    0.36190   1.00
H3       0.67327    0.07097    0.36300   1.00
C4       0.74993    0.25007    0.02085   1.00
C4       0.75007    0.24993    -0.02085   1.00
C3       0.75059    0.28485    0.04292   1.00
C3       0.71552    0.24321    -0.04225   1.00
C3       0.74908    0.21460    0.04184   1.00
C3a      0.78489    0.25708    -0.04263   1.00
C2       0.75029    0.24852    0.10517   1.00
C2       0.74941    0.25135    -0.10517   1.00
C3       0.75078    0.28402    0.08434   1.00
C3       0.71526    0.24394    -0.08359   1.00
C3       0.74943    0.21386    0.08320   1.00
C3       0.78398    0.25780    -0.08415   1.00
H1       0.75098    0.31273    0.02808   1.00
H1       0.68848    0.23765    -0.02685   1.00
H1       0.75137    0.31125    0.10032   1.00
H1       0.68814    0.23875    -0.09895   1.00
H1       0.74931    0.18606    0.09821   1.00
H1       0.81053    0.26311    -0.10043   1.00
C5       0.82368    0.26324    -0.02239   1.00
H1       0.74919    0.18727    0.02599   1.00
H2       0.84656    0.27224    -0.04354   1.00
H2       0.82089    0.28747    -0.00103   1.00
N1       0.83641    0.22742    -0.00292   1.00
C6       0.84303    0.19272    -0.02012   1.00
C6       0.84402    0.22327    0.03540   1.00
C6       0.85465    0.16595    0.00757   1.00
C6       0.85526    0.18538    0.04289   1.00
H3       0.83940    0.18702    -0.05099   1.00
H3       0.84112    0.24624    0.05691   1.00
H3       0.86190    0.13565    0.00259   1.00
H3       0.86300    0.17327    0.07097   1.00
