data_IRMOF10_SG202_Ligand1_label_m.

_audit_creation_method             'generated by an auxiliary program of Tobunporous'

_symmetry_space_group_name_H-M     'P 1'
_symmetry_Int_Tables_number        1
_symmetry_cell_setting             triclinic

_cell_length_a                    34.2800
_cell_length_b                    34.2800
_cell_length_c                    34.2800
_cell_angle_alpha                 90.0000
_cell_angle_beta                  90.0000
_cell_angle_gamma                 90.0000

loop_
_atom_site_label
_atom_site_fract_x
_atom_site_fract_y
_atom_site_fract_z
_atom_site_occupancy
O1       0.75000    0.75000    0.75000   1.00
Zn1      0.71720    0.78280    0.78280   1.00
Zn1      0.78280    0.71720    0.78280   1.00
Zn1      0.78280    0.78280    0.71720   1.00
Zn1      0.71720    0.71720    0.71720   1.00
O2       0.72650    0.77350    0.83820   1.00
O2       0.72650    0.83820    0.77350   1.00
O2       0.66180    0.77350    0.77350   1.00
O2       0.77350    0.72650    0.83820   1.00
O2       0.83820    0.72650    0.77350   1.00
O2       0.77350    0.66180    0.77350   1.00
O2       0.77350    0.83820    0.72650   1.00
O2       0.83820    0.77350    0.72650   1.00
O2       0.77350    0.77350    0.66180   1.00
O2       0.66180    0.72650    0.72650   1.00
O2       0.72650    0.66180    0.72650   1.00
O2       0.72650    0.72650    0.66180   1.00
C1       0.75000    0.75000    0.85520   1.00
C1       0.75000    0.85520    0.75000   1.00
C1       0.64480    0.75000    0.75000   1.00
C1       0.85520    0.75000    0.75000   1.00
C1       0.75000    0.64480    0.75000   1.00
C1       0.75000    0.75000    0.64480   1.00
O1       0.25000    0.25000    0.75000   1.00
Zn1      0.21720    0.28280    0.78280   1.00
Zn1      0.28280    0.21720    0.78280   1.00
Zn1      0.28280    0.28280    0.71720   1.00
Zn1      0.21720    0.21720    0.71720   1.00
O2       0.22650    0.27350    0.83820   1.00
O2       0.22650    0.33820    0.77350   1.00
O2       0.16180    0.27350    0.77350   1.00
O2       0.27350    0.22650    0.83820   1.00
O2       0.33820    0.22650    0.77350   1.00
O2       0.27350    0.16180    0.77350   1.00
O2       0.27350    0.33820    0.72650   1.00
O2       0.33820    0.27350    0.72650   1.00
O2       0.27350    0.27350    0.66180   1.00
O2       0.16180    0.22650    0.72650   1.00
O2       0.22650    0.16180    0.72650   1.00
O2       0.22650    0.22650    0.66180   1.00
C1       0.25000    0.25000    0.85520   1.00
C1       0.25000    0.35520    0.75000   1.00
C1       0.14480    0.25000    0.75000   1.00
C1       0.35520    0.25000    0.75000   1.00
C1       0.25000    0.14480    0.75000   1.00
C1       0.25000    0.25000    0.64480   1.00
O1       0.25000    0.75000    0.25000   1.00
Zn1      0.21720    0.78280    0.28280   1.00
Zn1      0.28280    0.71720    0.28280   1.00
Zn1      0.28280    0.78280    0.21720   1.00
Zn1      0.21720    0.71720    0.21720   1.00
O2       0.22650    0.77350    0.33820   1.00
O2       0.22650    0.83820    0.27350   1.00
O2       0.16180    0.77350    0.27350   1.00
O2       0.27350    0.72650    0.33820   1.00
O2       0.33820    0.72650    0.27350   1.00
O2       0.27350    0.66180    0.27350   1.00
O2       0.27350    0.83820    0.22650   1.00
O2       0.33820    0.77350    0.22650   1.00
O2       0.27350    0.77350    0.16180   1.00
O2       0.16180    0.72650    0.22650   1.00
O2       0.22650    0.66180    0.22650   1.00
O2       0.22650    0.72650    0.16180   1.00
C1       0.25000    0.75000    0.35520   1.00
C1       0.25000    0.85520    0.25000   1.00
C1       0.14480    0.75000    0.25000   1.00
C1       0.35520    0.75000    0.25000   1.00
C1       0.25000    0.64480    0.25000   1.00
C1       0.25000    0.75000    0.14480   1.00
O1       0.75000    0.25000    0.25000   1.00
Zn1      0.71720    0.28280    0.28280   1.00
Zn1      0.78280    0.21720    0.28280   1.00
Zn1      0.78280    0.28280    0.21720   1.00
Zn1      0.71720    0.21720    0.21720   1.00
O2       0.72650    0.27350    0.33820   1.00
O2       0.72650    0.33820    0.27350   1.00
O2       0.66180    0.27350    0.27350   1.00
O2       0.77350    0.22650    0.33820   1.00
O2       0.83820    0.22650    0.27350   1.00
O2       0.77350    0.16180    0.27350   1.00
O2       0.77350    0.33820    0.22650   1.00
O2       0.83820    0.27350    0.22650   1.00
O2       0.77350    0.27350    0.16180   1.00
O2       0.66180    0.22650    0.22650   1.00
O2       0.72650    0.16180    0.22650   1.00
O2       0.72650    0.22650    0.16180   1.00
C1       0.75000    0.25000    0.35520   1.00
C1       0.75000    0.35520    0.25000   1.00
C1       0.64480    0.25000    0.25000   1.00
C1       0.85520    0.25000    0.25000   1.00
C1       0.75000    0.14480    0.25000   1.00
C1       0.75000    0.25000    0.14480   1.00
O1       0.25000    0.25000    0.25000   1.00
Zn1      0.28280    0.21720    0.21720   1.00
Zn1      0.21720    0.28280    0.21720   1.00
Zn1      0.21720    0.21720    0.28280   1.00
Zn1      0.28280    0.28280    0.28280   1.00
O2       0.27350    0.22650    0.16180   1.00
O2       0.27350    0.16180    0.22650   1.00
O2       0.33820    0.22650    0.22650   1.00
O2       0.22650    0.27350    0.16180   1.00
O2       0.16180    0.27350    0.22650   1.00
O2       0.22650    0.33820    0.22650   1.00
O2       0.22650    0.16180    0.27350   1.00
O2       0.16180    0.22650    0.27350   1.00
O2       0.22650    0.22650    0.33820   1.00
O2       0.33820    0.27350    0.27350   1.00
O2       0.27350    0.33820    0.27350   1.00
O2       0.27350    0.27350    0.33820   1.00
C1       0.25000    0.25000    0.14480   1.00
C1       0.25000    0.14480    0.25000   1.00
C1       0.35520    0.25000    0.25000   1.00
C1       0.14480    0.25000    0.25000   1.00
C1       0.25000    0.35520    0.25000   1.00
C1       0.25000    0.25000    0.35520   1.00
O1       0.75000    0.75000    0.25000   1.00
Zn1      0.78280    0.71720    0.21720   1.00
Zn1      0.71720    0.78280    0.21720   1.00
Zn1      0.71720    0.71720    0.28280   1.00
Zn1      0.78280    0.78280    0.28280   1.00
O2       0.77350    0.72650    0.16180   1.00
O2       0.77350    0.66180    0.22650   1.00
O2       0.83820    0.72650    0.22650   1.00
O2       0.72650    0.77350    0.16180   1.00
O2       0.66180    0.77350    0.22650   1.00
O2       0.72650    0.83820    0.22650   1.00
O2       0.72650    0.66180    0.27350   1.00
O2       0.66180    0.72650    0.27350   1.00
O2       0.72650    0.72650    0.33820   1.00
O2       0.83820    0.77350    0.27350   1.00
O2       0.77350    0.83820    0.27350   1.00
O2       0.77350    0.77350    0.33820   1.00
C1       0.75000    0.75000    0.14480   1.00
C1       0.75000    0.64480    0.25000   1.00
C1       0.85520    0.75000    0.25000   1.00
C1       0.64480    0.75000    0.25000   1.00
C1       0.75000    0.85520    0.25000   1.00
C1       0.75000    0.75000    0.35520   1.00
O1       0.75000    0.25000    0.75000   1.00
Zn1      0.78280    0.21720    0.71720   1.00
Zn1      0.71720    0.28280    0.71720   1.00
Zn1      0.71720    0.21720    0.78280   1.00
Zn1      0.78280    0.28280    0.78280   1.00
O2       0.77350    0.22650    0.66180   1.00
O2       0.77350    0.16180    0.72650   1.00
O2       0.83820    0.22650    0.72650   1.00
O2       0.72650    0.27350    0.66180   1.00
O2       0.66180    0.27350    0.72650   1.00
O2       0.72650    0.33820    0.72650   1.00
O2       0.72650    0.16180    0.77350   1.00
O2       0.66180    0.22650    0.77350   1.00
O2       0.72650    0.22650    0.83820   1.00
O2       0.83820    0.27350    0.77350   1.00
O2       0.77350    0.33820    0.77350   1.00
O2       0.77350    0.27350    0.83820   1.00
C1       0.75000    0.25000    0.64480   1.00
C1       0.75000    0.14480    0.75000   1.00
C1       0.85520    0.25000    0.75000   1.00
C1       0.64480    0.25000    0.75000   1.00
C1       0.75000    0.35520    0.75000   1.00
C1       0.75000    0.25000    0.85520   1.00
O1       0.25000    0.75000    0.75000   1.00
Zn1      0.28280    0.71720    0.71720   1.00
Zn1      0.21720    0.78280    0.71720   1.00
Zn1      0.21720    0.71720    0.78280   1.00
Zn1      0.28280    0.78280    0.78280   1.00
O2       0.27350    0.72650    0.66180   1.00
O2       0.27350    0.66180    0.72650   1.00
O2       0.33820    0.72650    0.72650   1.00
O2       0.22650    0.77350    0.66180   1.00
O2       0.16180    0.77350    0.72650   1.00
O2       0.22650    0.83820    0.72650   1.00
O2       0.22650    0.66180    0.77350   1.00
O2       0.16180    0.72650    0.77350   1.00
O2       0.22650    0.72650    0.83820   1.00
O2       0.33820    0.77350    0.77350   1.00
O2       0.27350    0.83820    0.77350   1.00
O2       0.27350    0.77350    0.83820   1.00
C1       0.25000    0.75000    0.64480   1.00
C1       0.25000    0.64480    0.75000   1.00
C1       0.35520    0.75000    0.75000   1.00
C1       0.14480    0.75000    0.75000   1.00
C1       0.25000    0.85520    0.75000   1.00
C1       0.25000    0.75000    0.85520   1.00
C2       0.75287    0.74917    0.89757   1.00
C3a      0.77707    0.72400    0.91884   1.00
H1       0.79665    0.70430    0.90369   1.00
C3a      0.72753    0.77467    0.91704   1.00
H1       0.70884    0.79412    0.90051   1.00
C3b      0.77621    0.72405    0.95938   1.00
C5       0.80261    0.69661    0.98144   1.00
H2       0.78498    0.67666    0.99984   1.00
H2       0.82073    0.67850    0.96161   1.00
H2       0.82256    0.71342    1.00060   1.00
C3b      0.72612    0.77528    0.95756   1.00
C5       0.69853    0.80306    0.97767   1.00
H2       0.71511    0.82331    0.99670   1.00
H2       0.68157    0.82084    0.95655   1.00
H2       0.67754    0.78655    0.99594   1.00
C4       0.75060    0.74983    0.97873   1.00
C4       0.74940    0.75017    1.02127   1.00
C3b      0.72322    0.72528    1.04101   1.00
C5       0.69621    0.69809    1.01937   1.00
H2       0.71338    0.67747    1.00129   1.00
H2       0.67770    0.68071    1.03949   1.00
H2       0.67664    0.71505    0.99995   1.00
C3b      0.77445    0.77539    1.04204   1.00
C5       0.80265    0.80224    1.02152   1.00
H2       0.78652    0.82256    1.00217   1.00
H2       0.82001    0.81995    1.04235   1.00
H2       0.82326    0.78498    1.00350   1.00
C3a      0.72237    0.72588    1.08155   1.00
H1       0.70235    0.70686    1.09700   1.00
C3a      0.77303    0.77545    1.08257   1.00
H1       0.79215    0.79472    1.09881   1.00
C2       0.74713    0.75083    1.10243   1.00
C2       0.74917    0.89757    0.75287   1.00
C3a      0.72400    0.91884    0.77707   1.00
H1       0.70430    0.90369    0.79665   1.00
C3a      0.77467    0.91704    0.72753   1.00
H1       0.79412    0.90051    0.70884   1.00
C3b      0.72405    0.95938    0.77621   1.00
C5       0.69661    0.98144    0.80261   1.00
H2       0.67666    0.99984    0.78498   1.00
H2       0.67850    0.96161    0.82073   1.00
H2       0.71342    1.00060    0.82256   1.00
C3b      0.77528    0.95756    0.72612   1.00
C5       0.80306    0.97767    0.69853   1.00
H2       0.82331    0.99670    0.71511   1.00
H2       0.82084    0.95655    0.68157   1.00
H2       0.78655    0.99594    0.67754   1.00
C4       0.74983    0.97873    0.75060   1.00
C4       0.75017    1.02127    0.74940   1.00
C3b      0.72528    1.04101    0.72322   1.00
C5       0.69809    1.01937    0.69621   1.00
H2       0.67747    1.00129    0.71338   1.00
H2       0.68071    1.03949    0.67770   1.00
H2       0.71505    0.99995    0.67664   1.00
C3b      0.77539    1.04204    0.77445   1.00
C5       0.80224    1.02152    0.80265   1.00
H2       0.82256    1.00217    0.78652   1.00
H2       0.81995    1.04235    0.82001   1.00
H2       0.78498    1.00350    0.82326   1.00
C3a      0.72588    1.08155    0.72237   1.00
H1       0.70686    1.09700    0.70235   1.00
C3a      0.77545    1.08257    0.77303   1.00
H1       0.79472    1.09881    0.79215   1.00
C2       0.75083    1.10243    0.74713   1.00
C2       0.60243    0.75287    0.75083   1.00
C3a      0.58116    0.77707    0.77600   1.00
H1       0.59631    0.79665    0.79570   1.00
C3a      0.58296    0.72753    0.72533   1.00
H1       0.59949    0.70884    0.70588   1.00
C3b      0.54062    0.77621    0.77595   1.00
C5       0.51856    0.80261    0.80339   1.00
H2       0.50016    0.78498    0.82334   1.00
H2       0.53839    0.82073    0.82150   1.00
H2       0.49940    0.82256    0.78658   1.00
C3b      0.54244    0.72612    0.72472   1.00
C5       0.52233    0.69853    0.69694   1.00
H2       0.50330    0.71511    0.67669   1.00
H2       0.54345    0.68157    0.67916   1.00
H2       0.50406    0.67754    0.71345   1.00
C4       0.52127    0.75060    0.75017   1.00
C4       0.47873    0.74940    0.74983   1.00
C3b      0.45899    0.72322    0.77472   1.00
C5       0.48063    0.69621    0.80191   1.00
H2       0.49871    0.71338    0.82253   1.00
H2       0.46051    0.67770    0.81929   1.00
H2       0.50005    0.67664    0.78495   1.00
C3b      0.45796    0.77445    0.72461   1.00
C5       0.47848    0.80265    0.69776   1.00
H2       0.49783    0.78652    0.67744   1.00
H2       0.45765    0.82001    0.68005   1.00
H2       0.49650    0.82326    0.71502   1.00
C3a      0.41845    0.72237    0.77412   1.00
H1       0.40300    0.70235    0.79314   1.00
C3a      0.41743    0.77303    0.72455   1.00
H1       0.40119    0.79215    0.70528   1.00
C2       0.39757    0.74713    0.74917   1.00
C2       0.89757    0.75287    0.74917   1.00
C3a      0.91884    0.77707    0.72400   1.00
H1       0.90369    0.79665    0.70430   1.00
C3a      0.91704    0.72753    0.77467   1.00
H1       0.90051    0.70884    0.79412   1.00
C3b      0.95938    0.77621    0.72405   1.00
C5       0.98144    0.80261    0.69661   1.00
H2       0.99984    0.78498    0.67666   1.00
H2       0.96161    0.82073    0.67850   1.00
H2       1.00060    0.82256    0.71342   1.00
C3b      0.95756    0.72612    0.77528   1.00
C5       0.97767    0.69853    0.80306   1.00
H2       0.99670    0.71511    0.82331   1.00
H2       0.95655    0.68157    0.82084   1.00
H2       0.99594    0.67754    0.78655   1.00
C4       0.97873    0.75060    0.74983   1.00
C4       1.02127    0.74940    0.75017   1.00
C3b      1.04101    0.72322    0.72528   1.00
C5       1.01937    0.69621    0.69809   1.00
H2       1.00129    0.71338    0.67747   1.00
H2       1.03949    0.67770    0.68071   1.00
H2       0.99995    0.67664    0.71505   1.00
C3b      1.04204    0.77445    0.77539   1.00
C5       1.02152    0.80265    0.80224   1.00
H2       1.00217    0.78652    0.82256   1.00
H2       1.04235    0.82001    0.81995   1.00
H2       1.00350    0.82326    0.78498   1.00
C3a      1.08155    0.72237    0.72588   1.00
H1       1.09700    0.70235    0.70686   1.00
C3a      1.08257    0.77303    0.77545   1.00
H1       1.09881    0.79215    0.79472   1.00
C2       1.10243    0.74713    0.75083   1.00
C2       0.75083    0.60243    0.75287   1.00
C3a      0.77600    0.58116    0.77707   1.00
H1       0.79570    0.59631    0.79665   1.00
C3a      0.72533    0.58296    0.72753   1.00
H1       0.70588    0.59949    0.70884   1.00
C3b      0.77595    0.54062    0.77621   1.00
C5       0.80339    0.51856    0.80261   1.00
H2       0.82334    0.50016    0.78498   1.00
H2       0.82150    0.53839    0.82073   1.00
H2       0.78658    0.49940    0.82256   1.00
C3b      0.72472    0.54244    0.72612   1.00
C5       0.69694    0.52233    0.69853   1.00
H2       0.67669    0.50330    0.71511   1.00
H2       0.67916    0.54345    0.68157   1.00
H2       0.71345    0.50406    0.67754   1.00
C4       0.75017    0.52127    0.75060   1.00
C4       0.74983    0.47873    0.74940   1.00
C3b      0.77472    0.45899    0.72322   1.00
C5       0.80191    0.48063    0.69621   1.00
H2       0.82253    0.49871    0.71338   1.00
H2       0.81929    0.46051    0.67770   1.00
H2       0.78495    0.50005    0.67664   1.00
C3b      0.72461    0.45796    0.77445   1.00
C5       0.69776    0.47848    0.80265   1.00
H2       0.67744    0.49783    0.78652   1.00
H2       0.68005    0.45765    0.82001   1.00
H2       0.71502    0.49650    0.82326   1.00
C3a      0.77412    0.41845    0.72237   1.00
H1       0.79314    0.40300    0.70235   1.00
C3a      0.72455    0.41743    0.77303   1.00
H1       0.70528    0.40119    0.79215   1.00
C2       0.74917    0.39757    0.74713   1.00
C2       0.75287    0.75083    0.60243   1.00
C3a      0.77707    0.77600    0.58116   1.00
H1       0.79665    0.79570    0.59631   1.00
C3a      0.72753    0.72533    0.58296   1.00
H1       0.70884    0.70588    0.59949   1.00
C3b      0.77621    0.77595    0.54062   1.00
C5       0.80261    0.80339    0.51856   1.00
H2       0.78498    0.82334    0.50016   1.00
H2       0.82073    0.82150    0.53839   1.00
H2       0.82256    0.78658    0.49940   1.00
C3b      0.72612    0.72472    0.54244   1.00
C5       0.69853    0.69694    0.52233   1.00
H2       0.71511    0.67669    0.50330   1.00
H2       0.68157    0.67916    0.54345   1.00
H2       0.67754    0.71345    0.50406   1.00
C4       0.75060    0.75017    0.52127   1.00
C4       0.74940    0.74983    0.47873   1.00
C3b      0.72322    0.77472    0.45899   1.00
C5       0.69621    0.80191    0.48063   1.00
H2       0.71338    0.82253    0.49871   1.00
H2       0.67770    0.81929    0.46051   1.00
H2       0.67664    0.78495    0.50005   1.00
C3b      0.77445    0.72461    0.45796   1.00
C5       0.80265    0.69776    0.47848   1.00
H2       0.78652    0.67744    0.49783   1.00
H2       0.82001    0.68005    0.45765   1.00
H2       0.82326    0.71502    0.49650   1.00
C3a      0.72237    0.77412    0.41845   1.00
H1       0.70235    0.79314    0.40300   1.00
C3a      0.77303    0.72455    0.41743   1.00
H1       0.79215    0.70528    0.40119   1.00
C2       0.74713    0.74917    0.39757   1.00
C2       0.25287    0.24917    0.89757   1.00
C3a      0.27707    0.22400    0.91884   1.00
H1       0.29665    0.20430    0.90369   1.00
C3a      0.22753    0.27467    0.91704   1.00
H1       0.20884    0.29412    0.90051   1.00
C3b      0.27621    0.22405    0.95938   1.00
C5       0.30261    0.19661    0.98144   1.00
H2       0.28498    0.17666    0.99984   1.00
H2       0.32073    0.17850    0.96161   1.00
H2       0.32256    0.21342    1.00060   1.00
C3b      0.22612    0.27528    0.95756   1.00
C5       0.19853    0.30306    0.97767   1.00
H2       0.21511    0.32331    0.99670   1.00
H2       0.18157    0.32084    0.95655   1.00
H2       0.17754    0.28655    0.99594   1.00
C4       0.25060    0.24983    0.97873   1.00
C4       0.24940    0.25017    1.02127   1.00
C3b      0.22322    0.22528    1.04101   1.00
C5       0.19621    0.19809    1.01937   1.00
H2       0.21338    0.17747    1.00129   1.00
H2       0.17770    0.18071    1.03949   1.00
H2       0.17664    0.21505    0.99995   1.00
C3b      0.27445    0.27539    1.04204   1.00
C5       0.30265    0.30224    1.02152   1.00
H2       0.28652    0.32256    1.00217   1.00
H2       0.32001    0.31995    1.04235   1.00
H2       0.32326    0.28498    1.00350   1.00
C3a      0.22237    0.22588    1.08155   1.00
H1       0.20235    0.20686    1.09700   1.00
C3a      0.27303    0.27545    1.08257   1.00
H1       0.29215    0.29472    1.09881   1.00
C2       0.24713    0.25083    1.10243   1.00
C2       0.24917    0.39757    0.75287   1.00
C3a      0.22400    0.41884    0.77707   1.00
H1       0.20430    0.40369    0.79665   1.00
C3a      0.27467    0.41704    0.72753   1.00
H1       0.29412    0.40051    0.70884   1.00
C3b      0.22405    0.45938    0.77621   1.00
C5       0.19661    0.48144    0.80261   1.00
H2       0.17666    0.49984    0.78498   1.00
H2       0.17850    0.46161    0.82073   1.00
H2       0.21342    0.50060    0.82256   1.00
C3b      0.27528    0.45756    0.72612   1.00
C5       0.30306    0.47767    0.69853   1.00
H2       0.32331    0.49670    0.71511   1.00
H2       0.32084    0.45655    0.68157   1.00
H2       0.28655    0.49594    0.67754   1.00
C4       0.24983    0.47873    0.75060   1.00
C4       0.25017    0.52127    0.74940   1.00
C3b      0.22528    0.54101    0.72322   1.00
C5       0.19809    0.51937    0.69621   1.00
H2       0.17747    0.50129    0.71338   1.00
H2       0.18071    0.53949    0.67770   1.00
H2       0.21505    0.49995    0.67664   1.00
C3b      0.27539    0.54204    0.77445   1.00
C5       0.30224    0.52152    0.80265   1.00
H2       0.32256    0.50217    0.78652   1.00
H2       0.31995    0.54235    0.82001   1.00
H2       0.28498    0.50350    0.82326   1.00
C3a      0.22588    0.58155    0.72237   1.00
H1       0.20686    0.59700    0.70235   1.00
C3a      0.27545    0.58257    0.77303   1.00
H1       0.29472    0.59881    0.79215   1.00
C2       0.25083    0.60243    0.74713   1.00
C2       0.10243    0.25287    0.75083   1.00
C3a      0.08116    0.27707    0.77600   1.00
H1       0.09631    0.29665    0.79570   1.00
C3a      0.08296    0.22753    0.72533   1.00
H1       0.09949    0.20884    0.70588   1.00
C3b      0.04062    0.27621    0.77595   1.00
C5       0.01856    0.30261    0.80339   1.00
H2       0.00016    0.28498    0.82334   1.00
H2       0.03839    0.32073    0.82150   1.00
H2       -0.00060   0.32256    0.78658   1.00
C3b      0.04244    0.22612    0.72472   1.00
C5       0.02233    0.19853    0.69694   1.00
H2       0.00330    0.21511    0.67669   1.00
H2       0.04345    0.18157    0.67916   1.00
H2       0.00406    0.17754    0.71345   1.00
C4       0.02127    0.25060    0.75017   1.00
C4       -0.02127   0.24940    0.74983   1.00
C3b      -0.04101   0.22322    0.77472   1.00
C5       -0.01937   0.19621    0.80191   1.00
H2       -0.00129   0.21338    0.82253   1.00
H2       -0.03949   0.17770    0.81929   1.00
H2       0.00005    0.17664    0.78495   1.00
C3b      -0.04204   0.27445    0.72461   1.00
C5       -0.02152   0.30265    0.69776   1.00
H2       -0.00217   0.28652    0.67744   1.00
H2       -0.04235   0.32001    0.68005   1.00
H2       -0.00350   0.32326    0.71502   1.00
C3a      -0.08155   0.22237    0.77412   1.00
H1       -0.09700   0.20235    0.79314   1.00
C3a      -0.08257   0.27303    0.72455   1.00
H1       -0.09881   0.29215    0.70528   1.00
C2       -0.10243   0.24713    0.74917   1.00
C2       0.39757    0.25287    0.74917   1.00
C3a      0.41884    0.27707    0.72400   1.00
H1       0.40369    0.29665    0.70430   1.00
C3a      0.41704    0.22753    0.77467   1.00
H1       0.40051    0.20884    0.79412   1.00
C3b      0.45938    0.27621    0.72405   1.00
C5       0.48144    0.30261    0.69661   1.00
H2       0.49984    0.28498    0.67666   1.00
H2       0.46161    0.32073    0.67850   1.00
H2       0.50060    0.32256    0.71342   1.00
C3b      0.45756    0.22612    0.77528   1.00
C5       0.47767    0.19853    0.80306   1.00
H2       0.49670    0.21511    0.82331   1.00
H2       0.45655    0.18157    0.82084   1.00
H2       0.49594    0.17754    0.78655   1.00
C4       0.47873    0.25060    0.74983   1.00
C4       0.52127    0.24940    0.75017   1.00
C3b      0.54101    0.22322    0.72528   1.00
C5       0.51937    0.19621    0.69809   1.00
H2       0.50129    0.21338    0.67747   1.00
H2       0.53949    0.17770    0.68071   1.00
H2       0.49995    0.17664    0.71505   1.00
C3b      0.54204    0.27445    0.77539   1.00
C5       0.52152    0.30265    0.80224   1.00
H2       0.50217    0.28652    0.82256   1.00
H2       0.54235    0.32001    0.81995   1.00
H2       0.50350    0.32326    0.78498   1.00
C3a      0.58155    0.22237    0.72588   1.00
H1       0.59700    0.20235    0.70686   1.00
C3a      0.58257    0.27303    0.77545   1.00
H1       0.59881    0.29215    0.79472   1.00
C2       0.60243    0.24713    0.75083   1.00
C2       0.25083    0.10243    0.75287   1.00
C3a      0.27600    0.08116    0.77707   1.00
H1       0.29570    0.09631    0.79665   1.00
C3a      0.22533    0.08296    0.72753   1.00
H1       0.20588    0.09949    0.70884   1.00
C3b      0.27595    0.04062    0.77621   1.00
C5       0.30339    0.01856    0.80261   1.00
H2       0.32334    0.00016    0.78498   1.00
H2       0.32150    0.03839    0.82073   1.00
H2       0.28658    -0.00060   0.82256   1.00
C3b      0.22472    0.04244    0.72612   1.00
C5       0.19694    0.02233    0.69853   1.00
H2       0.17669    0.00330    0.71511   1.00
H2       0.17916    0.04345    0.68157   1.00
H2       0.21345    0.00406    0.67754   1.00
C4       0.25017    0.02127    0.75060   1.00
C4       0.24983    -0.02127   0.74940   1.00
C3b      0.27472    -0.04101   0.72322   1.00
C5       0.30191    -0.01937   0.69621   1.00
H2       0.32253    -0.00129   0.71338   1.00
H2       0.31929    -0.03949   0.67770   1.00
H2       0.28495    0.00005    0.67664   1.00
C3b      0.22461    -0.04204   0.77445   1.00
C5       0.19776    -0.02152   0.80265   1.00
H2       0.17744    -0.00217   0.78652   1.00
H2       0.18005    -0.04235   0.82001   1.00
H2       0.21502    -0.00350   0.82326   1.00
C3a      0.27412    -0.08155   0.72237   1.00
H1       0.29314    -0.09700   0.70235   1.00
C3a      0.22455    -0.08257   0.77303   1.00
H1       0.20528    -0.09881   0.79215   1.00
C2       0.24917    -0.10243   0.74713   1.00
C2       0.25287    0.25083    0.60243   1.00
C3a      0.27707    0.27600    0.58116   1.00
H1       0.29665    0.29570    0.59631   1.00
C3a      0.22753    0.22533    0.58296   1.00
H1       0.20884    0.20588    0.59949   1.00
C3b      0.27621    0.27595    0.54062   1.00
C5       0.30261    0.30339    0.51856   1.00
H2       0.28498    0.32334    0.50016   1.00
H2       0.32073    0.32150    0.53839   1.00
H2       0.32256    0.28658    0.49940   1.00
C3b      0.22612    0.22472    0.54244   1.00
C5       0.19853    0.19694    0.52233   1.00
H2       0.21511    0.17669    0.50330   1.00
H2       0.18157    0.17916    0.54345   1.00
H2       0.17754    0.21345    0.50406   1.00
C4       0.25060    0.25017    0.52127   1.00
C4       0.24940    0.24983    0.47873   1.00
C3b      0.22322    0.27472    0.45899   1.00
C5       0.19621    0.30191    0.48063   1.00
H2       0.21338    0.32253    0.49871   1.00
H2       0.17770    0.31929    0.46051   1.00
H2       0.17664    0.28495    0.50005   1.00
C3b      0.27445    0.22461    0.45796   1.00
C5       0.30265    0.19776    0.47848   1.00
H2       0.28652    0.17744    0.49783   1.00
H2       0.32001    0.18005    0.45765   1.00
H2       0.32326    0.21502    0.49650   1.00
C3a      0.22237    0.27412    0.41845   1.00
H1       0.20235    0.29314    0.40300   1.00
C3a      0.27303    0.22455    0.41743   1.00
H1       0.29215    0.20528    0.40119   1.00
C2       0.24713    0.24917    0.39757   1.00
C2       0.25287    0.74917    0.39757   1.00
C3a      0.27707    0.72400    0.41884   1.00
H1       0.29665    0.70430    0.40369   1.00
C3a      0.22753    0.77467    0.41704   1.00
H1       0.20884    0.79412    0.40051   1.00
C3b      0.27621    0.72405    0.45938   1.00
C5       0.30261    0.69661    0.48144   1.00
H2       0.28498    0.67666    0.49984   1.00
H2       0.32073    0.67850    0.46161   1.00
H2       0.32256    0.71342    0.50060   1.00
C3b      0.22612    0.77528    0.45756   1.00
C5       0.19853    0.80306    0.47767   1.00
H2       0.21511    0.82331    0.49670   1.00
H2       0.18157    0.82084    0.45655   1.00
H2       0.17754    0.78655    0.49594   1.00
C4       0.25060    0.74983    0.47873   1.00
C4       0.24940    0.75017    0.52127   1.00
C3b      0.22322    0.72528    0.54101   1.00
C5       0.19621    0.69809    0.51937   1.00
H2       0.21338    0.67747    0.50129   1.00
H2       0.17770    0.68071    0.53949   1.00
H2       0.17664    0.71505    0.49995   1.00
C3b      0.27445    0.77539    0.54204   1.00
C5       0.30265    0.80224    0.52152   1.00
H2       0.28652    0.82256    0.50217   1.00
H2       0.32001    0.81995    0.54235   1.00
H2       0.32326    0.78498    0.50350   1.00
C3a      0.22237    0.72588    0.58155   1.00
H1       0.20235    0.70686    0.59700   1.00
C3a      0.27303    0.77545    0.58257   1.00
H1       0.29215    0.79472    0.59881   1.00
C2       0.24713    0.75083    0.60243   1.00
C2       0.24917    0.89757    0.25287   1.00
C3a      0.22400    0.91884    0.27707   1.00
H1       0.20430    0.90369    0.29665   1.00
C3a      0.27467    0.91704    0.22753   1.00
H1       0.29412    0.90051    0.20884   1.00
C3b      0.22405    0.95938    0.27621   1.00
C5       0.19661    0.98144    0.30261   1.00
H2       0.17666    0.99984    0.28498   1.00
H2       0.17850    0.96161    0.32073   1.00
H2       0.21342    1.00060    0.32256   1.00
C3b      0.27528    0.95756    0.22612   1.00
C5       0.30306    0.97767    0.19853   1.00
H2       0.32331    0.99670    0.21511   1.00
H2       0.32084    0.95655    0.18157   1.00
H2       0.28655    0.99594    0.17754   1.00
C4       0.24983    0.97873    0.25060   1.00
C4       0.25017    1.02127    0.24940   1.00
C3b      0.22528    1.04101    0.22322   1.00
C5       0.19809    1.01937    0.19621   1.00
H2       0.17747    1.00129    0.21338   1.00
H2       0.18071    1.03949    0.17770   1.00
H2       0.21505    0.99995    0.17664   1.00
C3b      0.27539    1.04204    0.27445   1.00
C5       0.30224    1.02152    0.30265   1.00
H2       0.32256    1.00217    0.28652   1.00
H2       0.31995    1.04235    0.32001   1.00
H2       0.28498    1.00350    0.32326   1.00
C3a      0.22588    1.08155    0.22237   1.00
H1       0.20686    1.09700    0.20235   1.00
C3a      0.27545    1.08257    0.27303   1.00
H1       0.29472    1.09881    0.29215   1.00
C2       0.25083    1.10243    0.24713   1.00
C2       0.10243    0.75287    0.25083   1.00
C3a      0.08116    0.77707    0.27600   1.00
H1       0.09631    0.79665    0.29570   1.00
C3a      0.08296    0.72753    0.22533   1.00
H1       0.09949    0.70884    0.20588   1.00
C3b      0.04062    0.77621    0.27595   1.00
C5       0.01856    0.80261    0.30339   1.00
H2       0.00016    0.78498    0.32334   1.00
H2       0.03839    0.82073    0.32150   1.00
H2       -0.00060   0.82256    0.28658   1.00
C3b      0.04244    0.72612    0.22472   1.00
C5       0.02233    0.69853    0.19694   1.00
H2       0.00330    0.71511    0.17669   1.00
H2       0.04345    0.68157    0.17916   1.00
H2       0.00406    0.67754    0.21345   1.00
C4       0.02127    0.75060    0.25017   1.00
C4       -0.02127   0.74940    0.24983   1.00
C3b      -0.04101   0.72322    0.27472   1.00
C5       -0.01937   0.69621    0.30191   1.00
H2       -0.00129   0.71338    0.32253   1.00
H2       -0.03949   0.67770    0.31929   1.00
H2       0.00005    0.67664    0.28495   1.00
C3b      -0.04204   0.77445    0.22461   1.00
C5       -0.02152   0.80265    0.19776   1.00
H2       -0.00217   0.78652    0.17744   1.00
H2       -0.04235   0.82001    0.18005   1.00
H2       -0.00350   0.82326    0.21502   1.00
C3a      -0.08155   0.72237    0.27412   1.00
H1       -0.09700   0.70235    0.29314   1.00
C3a      -0.08257   0.77303    0.22455   1.00
H1       -0.09881   0.79215    0.20528   1.00
C2       -0.10243   0.74713    0.24917   1.00
C2       0.39757    0.75287    0.24917   1.00
C3a      0.41884    0.77707    0.22400   1.00
H1       0.40369    0.79665    0.20430   1.00
C3a      0.41704    0.72753    0.27467   1.00
H1       0.40051    0.70884    0.29412   1.00
C3b      0.45938    0.77621    0.22405   1.00
C5       0.48144    0.80261    0.19661   1.00
H2       0.49984    0.78498    0.17666   1.00
H2       0.46161    0.82073    0.17850   1.00
H2       0.50060    0.82256    0.21342   1.00
C3b      0.45756    0.72612    0.27528   1.00
C5       0.47767    0.69853    0.30306   1.00
H2       0.49670    0.71511    0.32331   1.00
H2       0.45655    0.68157    0.32084   1.00
H2       0.49594    0.67754    0.28655   1.00
C4       0.47873    0.75060    0.24983   1.00
C4       0.52127    0.74940    0.25017   1.00
C3b      0.54101    0.72322    0.22528   1.00
C5       0.51937    0.69621    0.19809   1.00
H2       0.50129    0.71338    0.17747   1.00
H2       0.53949    0.67770    0.18071   1.00
H2       0.49995    0.67664    0.21505   1.00
C3b      0.54204    0.77445    0.27539   1.00
C5       0.52152    0.80265    0.30224   1.00
H2       0.50217    0.78652    0.32256   1.00
H2       0.54235    0.82001    0.31995   1.00
H2       0.50350    0.82326    0.28498   1.00
C3a      0.58155    0.72237    0.22588   1.00
H1       0.59700    0.70235    0.20686   1.00
C3a      0.58257    0.77303    0.27545   1.00
H1       0.59881    0.79215    0.29472   1.00
C2       0.60243    0.74713    0.25083   1.00
C2       0.25083    0.60243    0.25287   1.00
C3a      0.27600    0.58116    0.27707   1.00
H1       0.29570    0.59631    0.29665   1.00
C3a      0.22533    0.58296    0.22753   1.00
H1       0.20588    0.59949    0.20884   1.00
C3b      0.27595    0.54062    0.27621   1.00
C5       0.30339    0.51856    0.30261   1.00
H2       0.32334    0.50016    0.28498   1.00
H2       0.32150    0.53839    0.32073   1.00
H2       0.28658    0.49940    0.32256   1.00
C3b      0.22472    0.54244    0.22612   1.00
C5       0.19694    0.52233    0.19853   1.00
H2       0.17669    0.50330    0.21511   1.00
H2       0.17916    0.54345    0.18157   1.00
H2       0.21345    0.50406    0.17754   1.00
C4       0.25017    0.52127    0.25060   1.00
C4       0.24983    0.47873    0.24940   1.00
C3b      0.27472    0.45899    0.22322   1.00
C5       0.30191    0.48063    0.19621   1.00
H2       0.32253    0.49871    0.21338   1.00
H2       0.31929    0.46051    0.17770   1.00
H2       0.28495    0.50005    0.17664   1.00
C3b      0.22461    0.45796    0.27445   1.00
C5       0.19776    0.47848    0.30265   1.00
H2       0.17744    0.49783    0.28652   1.00
H2       0.18005    0.45765    0.32001   1.00
H2       0.21502    0.49650    0.32326   1.00
C3a      0.27412    0.41845    0.22237   1.00
H1       0.29314    0.40300    0.20235   1.00
C3a      0.22455    0.41743    0.27303   1.00
H1       0.20528    0.40119    0.29215   1.00
C2       0.24917    0.39757    0.24713   1.00
C2       0.25287    0.75083    0.10243   1.00
C3a      0.27707    0.77600    0.08116   1.00
H1       0.29665    0.79570    0.09631   1.00
C3a      0.22753    0.72533    0.08296   1.00
H1       0.20884    0.70588    0.09949   1.00
C3b      0.27621    0.77595    0.04062   1.00
C5       0.30261    0.80339    0.01856   1.00
H2       0.28498    0.82334    0.00016   1.00
H2       0.32073    0.82150    0.03839   1.00
H2       0.32256    0.78658    -0.00060   1.00
C3b      0.22612    0.72472    0.04244   1.00
C5       0.19853    0.69694    0.02233   1.00
H2       0.21511    0.67669    0.00330   1.00
H2       0.18157    0.67916    0.04345   1.00
H2       0.17754    0.71345    0.00406   1.00
C4       0.25060    0.75017    0.02127   1.00
C4       0.24940    0.74983    -0.02127   1.00
C3b      0.22322    0.77472    -0.04101   1.00
C5       0.19621    0.80191    -0.01937   1.00
H2       0.21338    0.82253    -0.00129   1.00
H2       0.17770    0.81929    -0.03949   1.00
H2       0.17664    0.78495    0.00005   1.00
C3b      0.27445    0.72461    -0.04204   1.00
C5       0.30265    0.69776    -0.02152   1.00
H2       0.28652    0.67744    -0.00217   1.00
H2       0.32001    0.68005    -0.04235   1.00
H2       0.32326    0.71502    -0.00350   1.00
C3a      0.22237    0.77412    -0.08155   1.00
H1       0.20235    0.79314    -0.09700   1.00
C3a      0.27303    0.72455    -0.08257   1.00
H1       0.29215    0.70528    -0.09881   1.00
C2       0.24713    0.74917    -0.10243   1.00
C2       0.75287    0.24917    0.39757   1.00
C3a      0.77707    0.22400    0.41884   1.00
H1       0.79665    0.20430    0.40369   1.00
C3a      0.72753    0.27467    0.41704   1.00
H1       0.70884    0.29412    0.40051   1.00
C3b      0.77621    0.22405    0.45938   1.00
C5       0.80261    0.19661    0.48144   1.00
H2       0.78498    0.17666    0.49984   1.00
H2       0.82073    0.17850    0.46161   1.00
H2       0.82256    0.21342    0.50060   1.00
C3b      0.72612    0.27528    0.45756   1.00
C5       0.69853    0.30306    0.47767   1.00
H2       0.71511    0.32331    0.49670   1.00
H2       0.68157    0.32084    0.45655   1.00
H2       0.67754    0.28655    0.49594   1.00
C4       0.75060    0.24983    0.47873   1.00
C4       0.74940    0.25017    0.52127   1.00
C3b      0.72322    0.22528    0.54101   1.00
C5       0.69621    0.19809    0.51937   1.00
H2       0.71338    0.17747    0.50129   1.00
H2       0.67770    0.18071    0.53949   1.00
H2       0.67664    0.21505    0.49995   1.00
C3b      0.77445    0.27539    0.54204   1.00
C5       0.80265    0.30224    0.52152   1.00
H2       0.78652    0.32256    0.50217   1.00
H2       0.82001    0.31995    0.54235   1.00
H2       0.82326    0.28498    0.50350   1.00
C3a      0.72237    0.22588    0.58155   1.00
H1       0.70235    0.20686    0.59700   1.00
C3a      0.77303    0.27545    0.58257   1.00
H1       0.79215    0.29472    0.59881   1.00
C2       0.74713    0.25083    0.60243   1.00
C2       0.74917    0.39757    0.25287   1.00
C3a      0.72400    0.41884    0.27707   1.00
H1       0.70430    0.40369    0.29665   1.00
C3a      0.77467    0.41704    0.22753   1.00
H1       0.79412    0.40051    0.20884   1.00
C3b      0.72405    0.45938    0.27621   1.00
C5       0.69661    0.48144    0.30261   1.00
H2       0.67666    0.49984    0.28498   1.00
H2       0.67850    0.46161    0.32073   1.00
H2       0.71342    0.50060    0.32256   1.00
C3b      0.77528    0.45756    0.22612   1.00
C5       0.80306    0.47767    0.19853   1.00
H2       0.82331    0.49670    0.21511   1.00
H2       0.82084    0.45655    0.18157   1.00
H2       0.78655    0.49594    0.17754   1.00
C4       0.74983    0.47873    0.25060   1.00
C4       0.75017    0.52127    0.24940   1.00
C3b      0.72528    0.54101    0.22322   1.00
C5       0.69809    0.51937    0.19621   1.00
H2       0.67747    0.50129    0.21338   1.00
H2       0.68071    0.53949    0.17770   1.00
H2       0.71505    0.49995    0.17664   1.00
C3b      0.77539    0.54204    0.27445   1.00
C5       0.80224    0.52152    0.30265   1.00
H2       0.82256    0.50217    0.28652   1.00
H2       0.81995    0.54235    0.32001   1.00
H2       0.78498    0.50350    0.32326   1.00
C3a      0.72588    0.58155    0.22237   1.00
H1       0.70686    0.59700    0.20235   1.00
C3a      0.77545    0.58257    0.27303   1.00
H1       0.79472    0.59881    0.29215   1.00
C2       0.75083    0.60243    0.24713   1.00
C2       0.60243    0.25287    0.25083   1.00
C3a      0.58116    0.27707    0.27600   1.00
H1       0.59631    0.29665    0.29570   1.00
C3a      0.58296    0.22753    0.22533   1.00
H1       0.59949    0.20884    0.20588   1.00
C3b      0.54062    0.27621    0.27595   1.00
C5       0.51856    0.30261    0.30339   1.00
H2       0.50016    0.28498    0.32334   1.00
H2       0.53839    0.32073    0.32150   1.00
H2       0.49940    0.32256    0.28658   1.00
C3b      0.54244    0.22612    0.22472   1.00
C5       0.52233    0.19853    0.19694   1.00
H2       0.50330    0.21511    0.17669   1.00
H2       0.54345    0.18157    0.17916   1.00
H2       0.50406    0.17754    0.21345   1.00
C4       0.52127    0.25060    0.25017   1.00
C4       0.47873    0.24940    0.24983   1.00
C3b      0.45899    0.22322    0.27472   1.00
C5       0.48063    0.19621    0.30191   1.00
H2       0.49871    0.21338    0.32253   1.00
H2       0.46051    0.17770    0.31929   1.00
H2       0.50005    0.17664    0.28495   1.00
C3b      0.45796    0.27445    0.22461   1.00
C5       0.47848    0.30265    0.19776   1.00
H2       0.49783    0.28652    0.17744   1.00
H2       0.45765    0.32001    0.18005   1.00
H2       0.49650    0.32326    0.21502   1.00
C3a      0.41845    0.22237    0.27412   1.00
H1       0.40300    0.20235    0.29314   1.00
C3a      0.41743    0.27303    0.22455   1.00
H1       0.40119    0.29215    0.20528   1.00
C2       0.39757    0.24713    0.24917   1.00
C2       0.89757    0.25287    0.24917   1.00
C3a      0.91884    0.27707    0.22400   1.00
H1       0.90369    0.29665    0.20430   1.00
C3a      0.91704    0.22753    0.27467   1.00
H1       0.90051    0.20884    0.29412   1.00
C3b      0.95938    0.27621    0.22405   1.00
C5       0.98144    0.30261    0.19661   1.00
H2       0.99984    0.28498    0.17666   1.00
H2       0.96161    0.32073    0.17850   1.00
H2       1.00060    0.32256    0.21342   1.00
C3b      0.95756    0.22612    0.27528   1.00
C5       0.97767    0.19853    0.30306   1.00
H2       0.99670    0.21511    0.32331   1.00
H2       0.95655    0.18157    0.32084   1.00
H2       0.99594    0.17754    0.28655   1.00
C4       0.97873    0.25060    0.24983   1.00
C4       1.02127    0.24940    0.25017   1.00
C3b      1.04101    0.22322    0.22528   1.00
C5       1.01937    0.19621    0.19809   1.00
H2       1.00129    0.21338    0.17747   1.00
H2       1.03949    0.17770    0.18071   1.00
H2       0.99995    0.17664    0.21505   1.00
C3b      1.04204    0.27445    0.27539   1.00
C5       1.02152    0.30265    0.30224   1.00
H2       1.00217    0.28652    0.32256   1.00
H2       1.04235    0.32001    0.31995   1.00
H2       1.00350    0.32326    0.28498   1.00
C3a      1.08155    0.22237    0.22588   1.00
H1       1.09700    0.20235    0.20686   1.00
C3a      1.08257    0.27303    0.27545   1.00
H1       1.09881    0.29215    0.29472   1.00
C2       1.10243    0.24713    0.25083   1.00
C2       0.75083    0.10243    0.25287   1.00
C3a      0.77600    0.08116    0.27707   1.00
H1       0.79570    0.09631    0.29665   1.00
C3a      0.72533    0.08296    0.22753   1.00
H1       0.70588    0.09949    0.20884   1.00
C3b      0.77595    0.04062    0.27621   1.00
C5       0.80339    0.01856    0.30261   1.00
H2       0.82334    0.00016    0.28498   1.00
H2       0.82150    0.03839    0.32073   1.00
H2       0.78658    -0.00060   0.32256   1.00
C3b      0.72472    0.04244    0.22612   1.00
C5       0.69694    0.02233    0.19853   1.00
H2       0.67669    0.00330    0.21511   1.00
H2       0.67916    0.04345    0.18157   1.00
H2       0.71345    0.00406    0.17754   1.00
C4       0.75017    0.02127    0.25060   1.00
C4       0.74983    -0.02127   0.24940   1.00
C3b      0.77472    -0.04101   0.22322   1.00
C5       0.80191    -0.01937   0.19621   1.00
H2       0.82253    -0.00129   0.21338   1.00
H2       0.81929    -0.03949   0.17770   1.00
H2       0.78495    0.00005    0.17664   1.00
C3b      0.72461    -0.04204   0.27445   1.00
C5       0.69776    -0.02152   0.30265   1.00
H2       0.67744    -0.00217   0.28652   1.00
H2       0.68005    -0.04235   0.32001   1.00
H2       0.71502    -0.00350   0.32326   1.00
C3a      0.77412    -0.08155   0.22237   1.00
H1       0.79314    -0.09700   0.20235   1.00
C3a      0.72455    -0.08257   0.27303   1.00
H1       0.70528    -0.09881   0.29215   1.00
C2       0.74917    -0.10243   0.24713   1.00
C2       0.75287    0.25083    0.10243   1.00
C3a      0.77707    0.27600    0.08116   1.00
H1       0.79665    0.29570    0.09631   1.00
C3a      0.72753    0.22533    0.08296   1.00
H1       0.70884    0.20588    0.09949   1.00
C3b      0.77621    0.27595    0.04062   1.00
C5       0.80261    0.30339    0.01856   1.00
H2       0.78498    0.32334    0.00016   1.00
H2       0.82073    0.32150    0.03839   1.00
H2       0.82256    0.28658    -0.00060   1.00
C3b      0.72612    0.22472    0.04244   1.00
C5       0.69853    0.19694    0.02233   1.00
H2       0.71511    0.17669    0.00330   1.00
H2       0.68157    0.17916    0.04345   1.00
H2       0.67754    0.21345    0.00406   1.00
C4       0.75060    0.25017    0.02127   1.00
C4       0.74940    0.24983    -0.02127   1.00
C3b      0.72322    0.27472    -0.04101   1.00
C5       0.69621    0.30191    -0.01937   1.00
H2       0.71338    0.32253    -0.00129   1.00
H2       0.67770    0.31929    -0.03949   1.00
H2       0.67664    0.28495    0.00005   1.00
C3b      0.77445    0.22461    -0.04204   1.00
C5       0.80265    0.19776    -0.02152   1.00
H2       0.78652    0.17744    -0.00217   1.00
H2       0.82001    0.18005    -0.04235   1.00
H2       0.82326    0.21502    -0.00350   1.00
C3a      0.72237    0.27412    -0.08155   1.00
H1       0.70235    0.29314    -0.09700   1.00
C3a      0.77303    0.22455    -0.08257   1.00
H1       0.79215    0.20528    -0.09881   1.00
C2       0.74713    0.24917    -0.10243   1.00
