data_IRMOF10_SG202_Ligand5_label_b.

_audit_creation_method             'generated by an auxiliary program of Tobunporous'

_symmetry_space_group_name_H-M     'P 1'
_symmetry_Int_Tables_number        1
_symmetry_cell_setting             triclinic

_cell_length_a                    34.2800
_cell_length_b                    34.2800
_cell_length_c                    34.2800
_cell_angle_alpha                 90.0000
_cell_angle_beta                  90.0000
_cell_angle_gamma                 90.0000

loop_
_atom_site_label
_atom_site_fract_x
_atom_site_fract_y
_atom_site_fract_z
_atom_site_occupancy
O1       0.75000    0.75000    0.75000   1.00
Zn1      0.71720    0.78280    0.78280   1.00
Zn1      0.78280    0.71720    0.78280   1.00
Zn1      0.78280    0.78280    0.71720   1.00
Zn1      0.71720    0.71720    0.71720   1.00
O2       0.72650    0.77350    0.83820   1.00
O2       0.72650    0.83820    0.77350   1.00
O2       0.66180    0.77350    0.77350   1.00
O2       0.77350    0.72650    0.83820   1.00
O2       0.83820    0.72650    0.77350   1.00
O2       0.77350    0.66180    0.77350   1.00
O2       0.77350    0.83820    0.72650   1.00
O2       0.83820    0.77350    0.72650   1.00
O2       0.77350    0.77350    0.66180   1.00
O2       0.66180    0.72650    0.72650   1.00
O2       0.72650    0.66180    0.72650   1.00
O2       0.72650    0.72650    0.66180   1.00
C1       0.75000    0.75000    0.85520   1.00
C1       0.75000    0.85520    0.75000   1.00
C1       0.64480    0.75000    0.75000   1.00
C1       0.85520    0.75000    0.75000   1.00
C1       0.75000    0.64480    0.75000   1.00
C1       0.75000    0.75000    0.64480   1.00
O1       0.25000    0.25000    0.75000   1.00
Zn1      0.21720    0.28280    0.78280   1.00
Zn1      0.28280    0.21720    0.78280   1.00
Zn1      0.28280    0.28280    0.71720   1.00
Zn1      0.21720    0.21720    0.71720   1.00
O2       0.22650    0.27350    0.83820   1.00
O2       0.22650    0.33820    0.77350   1.00
O2       0.16180    0.27350    0.77350   1.00
O2       0.27350    0.22650    0.83820   1.00
O2       0.33820    0.22650    0.77350   1.00
O2       0.27350    0.16180    0.77350   1.00
O2       0.27350    0.33820    0.72650   1.00
O2       0.33820    0.27350    0.72650   1.00
O2       0.27350    0.27350    0.66180   1.00
O2       0.16180    0.22650    0.72650   1.00
O2       0.22650    0.16180    0.72650   1.00
O2       0.22650    0.22650    0.66180   1.00
C1       0.25000    0.25000    0.85520   1.00
C1       0.25000    0.35520    0.75000   1.00
C1       0.14480    0.25000    0.75000   1.00
C1       0.35520    0.25000    0.75000   1.00
C1       0.25000    0.14480    0.75000   1.00
C1       0.25000    0.25000    0.64480   1.00
O1       0.25000    0.75000    0.25000   1.00
Zn1      0.21720    0.78280    0.28280   1.00
Zn1      0.28280    0.71720    0.28280   1.00
Zn1      0.28280    0.78280    0.21720   1.00
Zn1      0.21720    0.71720    0.21720   1.00
O2       0.22650    0.77350    0.33820   1.00
O2       0.22650    0.83820    0.27350   1.00
O2       0.16180    0.77350    0.27350   1.00
O2       0.27350    0.72650    0.33820   1.00
O2       0.33820    0.72650    0.27350   1.00
O2       0.27350    0.66180    0.27350   1.00
O2       0.27350    0.83820    0.22650   1.00
O2       0.33820    0.77350    0.22650   1.00
O2       0.27350    0.77350    0.16180   1.00
O2       0.16180    0.72650    0.22650   1.00
O2       0.22650    0.66180    0.22650   1.00
O2       0.22650    0.72650    0.16180   1.00
C1       0.25000    0.75000    0.35520   1.00
C1       0.25000    0.85520    0.25000   1.00
C1       0.14480    0.75000    0.25000   1.00
C1       0.35520    0.75000    0.25000   1.00
C1       0.25000    0.64480    0.25000   1.00
C1       0.25000    0.75000    0.14480   1.00
O1       0.75000    0.25000    0.25000   1.00
Zn1      0.71720    0.28280    0.28280   1.00
Zn1      0.78280    0.21720    0.28280   1.00
Zn1      0.78280    0.28280    0.21720   1.00
Zn1      0.71720    0.21720    0.21720   1.00
O2       0.72650    0.27350    0.33820   1.00
O2       0.72650    0.33820    0.27350   1.00
O2       0.66180    0.27350    0.27350   1.00
O2       0.77350    0.22650    0.33820   1.00
O2       0.83820    0.22650    0.27350   1.00
O2       0.77350    0.16180    0.27350   1.00
O2       0.77350    0.33820    0.22650   1.00
O2       0.83820    0.27350    0.22650   1.00
O2       0.77350    0.27350    0.16180   1.00
O2       0.66180    0.22650    0.22650   1.00
O2       0.72650    0.16180    0.22650   1.00
O2       0.72650    0.22650    0.16180   1.00
C1       0.75000    0.25000    0.35520   1.00
C1       0.75000    0.35520    0.25000   1.00
C1       0.64480    0.25000    0.25000   1.00
C1       0.85520    0.25000    0.25000   1.00
C1       0.75000    0.14480    0.25000   1.00
C1       0.75000    0.25000    0.14480   1.00
O1       0.25000    0.25000    0.25000   1.00
Zn1      0.28280    0.21720    0.21720   1.00
Zn1      0.21720    0.28280    0.21720   1.00
Zn1      0.21720    0.21720    0.28280   1.00
Zn1      0.28280    0.28280    0.28280   1.00
O2       0.27350    0.22650    0.16180   1.00
O2       0.27350    0.16180    0.22650   1.00
O2       0.33820    0.22650    0.22650   1.00
O2       0.22650    0.27350    0.16180   1.00
O2       0.16180    0.27350    0.22650   1.00
O2       0.22650    0.33820    0.22650   1.00
O2       0.22650    0.16180    0.27350   1.00
O2       0.16180    0.22650    0.27350   1.00
O2       0.22650    0.22650    0.33820   1.00
O2       0.33820    0.27350    0.27350   1.00
O2       0.27350    0.33820    0.27350   1.00
O2       0.27350    0.27350    0.33820   1.00
C1       0.25000    0.25000    0.14480   1.00
C1       0.25000    0.14480    0.25000   1.00
C1       0.35520    0.25000    0.25000   1.00
C1       0.14480    0.25000    0.25000   1.00
C1       0.25000    0.35520    0.25000   1.00
C1       0.25000    0.25000    0.35520   1.00
O1       0.75000    0.75000    0.25000   1.00
Zn1      0.78280    0.71720    0.21720   1.00
Zn1      0.71720    0.78280    0.21720   1.00
Zn1      0.71720    0.71720    0.28280   1.00
Zn1      0.78280    0.78280    0.28280   1.00
O2       0.77350    0.72650    0.16180   1.00
O2       0.77350    0.66180    0.22650   1.00
O2       0.83820    0.72650    0.22650   1.00
O2       0.72650    0.77350    0.16180   1.00
O2       0.66180    0.77350    0.22650   1.00
O2       0.72650    0.83820    0.22650   1.00
O2       0.72650    0.66180    0.27350   1.00
O2       0.66180    0.72650    0.27350   1.00
O2       0.72650    0.72650    0.33820   1.00
O2       0.83820    0.77350    0.27350   1.00
O2       0.77350    0.83820    0.27350   1.00
O2       0.77350    0.77350    0.33820   1.00
C1       0.75000    0.75000    0.14480   1.00
C1       0.75000    0.64480    0.25000   1.00
C1       0.85520    0.75000    0.25000   1.00
C1       0.64480    0.75000    0.25000   1.00
C1       0.75000    0.85520    0.25000   1.00
C1       0.75000    0.75000    0.35520   1.00
O1       0.75000    0.25000    0.75000   1.00
Zn1      0.78280    0.21720    0.71720   1.00
Zn1      0.71720    0.28280    0.71720   1.00
Zn1      0.71720    0.21720    0.78280   1.00
Zn1      0.78280    0.28280    0.78280   1.00
O2       0.77350    0.22650    0.66180   1.00
O2       0.77350    0.16180    0.72650   1.00
O2       0.83820    0.22650    0.72650   1.00
O2       0.72650    0.27350    0.66180   1.00
O2       0.66180    0.27350    0.72650   1.00
O2       0.72650    0.33820    0.72650   1.00
O2       0.72650    0.16180    0.77350   1.00
O2       0.66180    0.22650    0.77350   1.00
O2       0.72650    0.22650    0.83820   1.00
O2       0.83820    0.27350    0.77350   1.00
O2       0.77350    0.33820    0.77350   1.00
O2       0.77350    0.27350    0.83820   1.00
C1       0.75000    0.25000    0.64480   1.00
C1       0.75000    0.14480    0.75000   1.00
C1       0.85520    0.25000    0.75000   1.00
C1       0.64480    0.25000    0.75000   1.00
C1       0.75000    0.35520    0.75000   1.00
C1       0.75000    0.25000    0.85520   1.00
O1       0.25000    0.75000    0.75000   1.00
Zn1      0.28280    0.71720    0.71720   1.00
Zn1      0.21720    0.78280    0.71720   1.00
Zn1      0.21720    0.71720    0.78280   1.00
Zn1      0.28280    0.78280    0.78280   1.00
O2       0.27350    0.72650    0.66180   1.00
O2       0.27350    0.66180    0.72650   1.00
O2       0.33820    0.72650    0.72650   1.00
O2       0.22650    0.77350    0.66180   1.00
O2       0.16180    0.77350    0.72650   1.00
O2       0.22650    0.83820    0.72650   1.00
O2       0.22650    0.66180    0.77350   1.00
O2       0.16180    0.72650    0.77350   1.00
O2       0.22650    0.72650    0.83820   1.00
O2       0.33820    0.77350    0.77350   1.00
O2       0.27350    0.83820    0.77350   1.00
O2       0.27350    0.77350    0.83820   1.00
C1       0.25000    0.75000    0.64480   1.00
C1       0.25000    0.64480    0.75000   1.00
C1       0.35520    0.75000    0.75000   1.00
C1       0.14480    0.75000    0.75000   1.00
C1       0.25000    0.85520    0.75000   1.00
C1       0.25000    0.75000    0.85520   1.00
C5       0.70130    0.86730    1.13227   1.00
H2       0.68031    0.84791    1.14755   1.00
H2       0.68375    0.88434    1.11099   1.00
C5       0.72087    0.89489    1.16219   1.00
H2       0.70161    0.92017    1.16890   1.00
H2       0.74907    0.90589    1.15040   1.00
O_3      0.80975    0.78790    0.98000   1.00
C4       0.74971    0.74966    1.02100   1.00
C3c      0.73047    0.77881    1.04243   1.00
H1       0.71514    0.80182    1.02725   1.00
C3d      0.76904    0.71962    1.04135   1.00
C3       0.73111    0.77911    1.08354   1.00
O2       0.70774    0.80572    1.10248   1.00
C3       0.77036    0.72026    1.08227   1.00
H1       0.78671    0.69739    1.09657   1.00
C2       0.75142    0.74975    1.10439   1.00
C5       0.84461    0.76597    0.97879   1.00
H2       0.85521    0.76141    0.94838   1.00
H2       0.84059    0.73679    0.99266   1.00
C5       0.87547    0.78857    1.00122   1.00
H2       0.86441    0.79409    1.03129   1.00
H2       0.87950    0.81750    0.98691   1.00
C5       0.91412    0.76604    1.00254   1.00
H2       0.92519    0.76019    0.97260   1.00
H2       0.91042    0.73774    1.01803   1.00
H2       0.93655    0.78339    1.01830   1.00
C5       0.76663    0.66041    1.01105   1.00
C5       0.72927    0.83994    1.11070   1.00
H2       0.74307    0.66996    0.99088   1.00
H2       0.75303    0.64643    1.03712   1.00
H2       0.73942    0.85372    1.08300   1.00
H2       0.75569    0.83401    1.12895   1.00
H2       0.72626    0.87968    1.19055   1.00
H2       0.75224    0.61352    0.94250   1.00
H2       0.74537    0.58655    0.98766   1.00
C2       0.75253    0.74957    0.89605   1.00
C3       0.72105    0.73199    0.91597   1.00
O2       0.69642    0.70660    0.89674   1.00
C3       0.78167    0.76862    0.91826   1.00
H1       0.80561    0.78322    0.90385   1.00
C3a      0.71988    0.73292    0.95713   1.00
H1       0.69677    0.71743    0.97202   1.00
C3b      0.78108    0.76841    0.95922   1.00
C4       0.75008    0.75041    0.97900   1.00
O_3      0.79088    0.69194    1.02167   1.00
C5       0.66111    0.72549    0.88720   1.00
H2       0.64591    0.73634    0.91391   1.00
C5       0.63530    0.69538    0.86666   1.00
H2       0.66637    0.75065    0.86726   1.00
H2       0.62170    0.67637    0.88923   1.00
H2       0.65479    0.67628    0.84899   1.00
C5       0.60370    0.71414    0.84069   1.00
H2       0.58650    0.73541    0.85811   1.00
H2       0.58354    0.69155    0.82891   1.00
H2       0.61687    0.72925    0.81494   1.00
C5       0.79198    0.63047    0.99020   1.00
H2       0.81111    0.61608    1.01218   1.00
H2       0.81150    0.64627    0.96955   1.00
C5       0.76739    0.60010    0.96803   1.00
H2       0.78655    0.57654    0.95666   1.00
C5       0.86730    1.13227    0.70130   1.00
H2       0.84791    1.14755    0.68031   1.00
H2       0.88434    1.11099    0.68375   1.00
C5       0.89489    1.16219    0.72087   1.00
H2       0.92017    1.16890    0.70161   1.00
H2       0.90589    1.15040    0.74907   1.00
O_3      0.78790    0.98000    0.80975   1.00
C4       0.74966    1.02100    0.74971   1.00
C3c      0.77881    1.04243    0.73047   1.00
H1       0.80182    1.02725    0.71514   1.00
C3d      0.71962    1.04135    0.76904   1.00
C3       0.77911    1.08354    0.73111   1.00
O2       0.80572    1.10248    0.70774   1.00
C3       0.72026    1.08227    0.77036   1.00
H1       0.69739    1.09657    0.78671   1.00
C2       0.74975    1.10439    0.75142   1.00
C5       0.76597    0.97879    0.84461   1.00
H2       0.76141    0.94838    0.85521   1.00
H2       0.73679    0.99266    0.84059   1.00
C5       0.78857    1.00122    0.87547   1.00
H2       0.79409    1.03129    0.86441   1.00
H2       0.81750    0.98691    0.87950   1.00
C5       0.76604    1.00254    0.91412   1.00
H2       0.76019    0.97260    0.92519   1.00
H2       0.73774    1.01803    0.91042   1.00
H2       0.78339    1.01830    0.93655   1.00
C5       0.66041    1.01105    0.76663   1.00
C5       0.83994    1.11070    0.72927   1.00
H2       0.66996    0.99088    0.74307   1.00
H2       0.64643    1.03712    0.75303   1.00
H2       0.85372    1.08300    0.73942   1.00
H2       0.83401    1.12895    0.75569   1.00
H2       0.87968    1.19055    0.72626   1.00
H2       0.61352    0.94250    0.75224   1.00
H2       0.58655    0.98766    0.74537   1.00
C2       0.74957    0.89605    0.75253   1.00
C3       0.73199    0.91597    0.72105   1.00
O2       0.70660    0.89674    0.69642   1.00
C3       0.76862    0.91826    0.78167   1.00
H1       0.78322    0.90385    0.80561   1.00
C3a      0.73292    0.95713    0.71988   1.00
H1       0.71743    0.97202    0.69677   1.00
C3b      0.76841    0.95922    0.78108   1.00
C4       0.75041    0.97900    0.75008   1.00
O_3      0.69194    1.02167    0.79088   1.00
C5       0.72549    0.88720    0.66111   1.00
H2       0.73634    0.91391    0.64591   1.00
C5       0.69538    0.86666    0.63530   1.00
H2       0.75065    0.86726    0.66637   1.00
H2       0.67637    0.88923    0.62170   1.00
H2       0.67628    0.84899    0.65479   1.00
C5       0.71414    0.84069    0.60370   1.00
H2       0.73541    0.85811    0.58650   1.00
H2       0.69155    0.82891    0.58354   1.00
H2       0.72925    0.81494    0.61687   1.00
C5       0.63047    0.99020    0.79198   1.00
H2       0.61608    1.01218    0.81111   1.00
H2       0.64627    0.96955    0.81150   1.00
C5       0.60010    0.96803    0.76739   1.00
H2       0.57654    0.95666    0.78655   1.00
C5       0.36773    0.70130    0.63270   1.00
H2       0.35245    0.68031    0.65209   1.00
H2       0.38901    0.68375    0.61566   1.00
C5       0.33781    0.72087    0.60511   1.00
H2       0.33110    0.70161    0.57983   1.00
H2       0.34960    0.74907    0.59411   1.00
O_3      0.52000    0.80975    0.71210   1.00
C4       0.47900    0.74971    0.75034   1.00
C3c      0.45757    0.73047    0.72119   1.00
H1       0.47275    0.71514    0.69818   1.00
C3d      0.45865    0.76904    0.78038   1.00
C3       0.41646    0.73111    0.72089   1.00
O2       0.39752    0.70774    0.69428   1.00
C3       0.41773    0.77036    0.77974   1.00
H1       0.40343    0.78671    0.80261   1.00
C2       0.39561    0.75142    0.75025   1.00
C5       0.52121    0.84461    0.73403   1.00
H2       0.55162    0.85521    0.73859   1.00
H2       0.50734    0.84059    0.76321   1.00
C5       0.49878    0.87547    0.71143   1.00
H2       0.46871    0.86441    0.70591   1.00
H2       0.51309    0.87950    0.68250   1.00
C5       0.49746    0.91412    0.73396   1.00
H2       0.52740    0.92519    0.73981   1.00
H2       0.48197    0.91042    0.76226   1.00
H2       0.48170    0.93655    0.71661   1.00
C5       0.48895    0.76663    0.83959   1.00
C5       0.38930    0.72927    0.66006   1.00
H2       0.50912    0.74307    0.83004   1.00
H2       0.46288    0.75303    0.85357   1.00
H2       0.41700    0.73942    0.64628   1.00
H2       0.37105    0.75569    0.66599   1.00
H2       0.30945    0.72626    0.62032   1.00
H2       0.55750    0.75224    0.88648   1.00
H2       0.51234    0.74537    0.91345   1.00
C2       0.60395    0.75253    0.75043   1.00
C3       0.58403    0.72105    0.76801   1.00
O2       0.60326    0.69642    0.79340   1.00
C3       0.58174    0.78167    0.73138   1.00
H1       0.59615    0.80561    0.71678   1.00
C3a      0.54287    0.71988    0.76708   1.00
H1       0.52798    0.69677    0.78257   1.00
C3b      0.54078    0.78108    0.73159   1.00
C4       0.52100    0.75008    0.74959   1.00
O_3      0.47833    0.79088    0.80806   1.00
C5       0.61280    0.66111    0.77451   1.00
H2       0.58609    0.64591    0.76366   1.00
C5       0.63334    0.63530    0.80462   1.00
H2       0.63274    0.66637    0.74935   1.00
H2       0.61077    0.62170    0.82363   1.00
H2       0.65101    0.65479    0.82372   1.00
C5       0.65931    0.60370    0.78586   1.00
H2       0.64189    0.58650    0.76459   1.00
H2       0.67109    0.58354    0.80845   1.00
H2       0.68506    0.61687    0.77075   1.00
C5       0.50980    0.79198    0.86953   1.00
H2       0.48782    0.81111    0.88392   1.00
H2       0.53045    0.81150    0.85373   1.00
C5       0.53197    0.76739    0.89990   1.00
H2       0.54334    0.78655    0.92346   1.00
C5       1.13227    0.70130    0.86730   1.00
H2       1.14755    0.68031    0.84791   1.00
H2       1.11099    0.68375    0.88434   1.00
C5       1.16219    0.72087    0.89489   1.00
H2       1.16890    0.70161    0.92017   1.00
H2       1.15040    0.74907    0.90589   1.00
O_3      0.98000    0.80975    0.78790   1.00
C4       1.02100    0.74971    0.74966   1.00
C3c      1.04243    0.73047    0.77881   1.00
H1       1.02725    0.71514    0.80182   1.00
C3d      1.04135    0.76904    0.71962   1.00
C3       1.08354    0.73111    0.77911   1.00
O2       1.10248    0.70774    0.80572   1.00
C3       1.08227    0.77036    0.72026   1.00
H1       1.09657    0.78671    0.69739   1.00
C2       1.10439    0.75142    0.74975   1.00
C5       0.97879    0.84461    0.76597   1.00
H2       0.94838    0.85521    0.76141   1.00
H2       0.99266    0.84059    0.73679   1.00
C5       1.00122    0.87547    0.78857   1.00
H2       1.03129    0.86441    0.79409   1.00
H2       0.98691    0.87950    0.81750   1.00
C5       1.00254    0.91412    0.76604   1.00
H2       0.97260    0.92519    0.76019   1.00
H2       1.01803    0.91042    0.73774   1.00
H2       1.01830    0.93655    0.78339   1.00
C5       1.01105    0.76663    0.66041   1.00
C5       1.11070    0.72927    0.83994   1.00
H2       0.99088    0.74307    0.66996   1.00
H2       1.03712    0.75303    0.64643   1.00
H2       1.08300    0.73942    0.85372   1.00
H2       1.12895    0.75569    0.83401   1.00
H2       1.19055    0.72626    0.87968   1.00
H2       0.94250    0.75224    0.61352   1.00
H2       0.98766    0.74537    0.58655   1.00
C2       0.89605    0.75253    0.74957   1.00
C3       0.91597    0.72105    0.73199   1.00
O2       0.89674    0.69642    0.70660   1.00
C3       0.91826    0.78167    0.76862   1.00
H1       0.90385    0.80561    0.78322   1.00
C3a      0.95713    0.71988    0.73292   1.00
H1       0.97202    0.69677    0.71743   1.00
C3b      0.95922    0.78108    0.76841   1.00
C4       0.97900    0.75008    0.75041   1.00
O_3      1.02167    0.79088    0.69194   1.00
C5       0.88720    0.66111    0.72549   1.00
H2       0.91391    0.64591    0.73634   1.00
C5       0.86666    0.63530    0.69538   1.00
H2       0.86726    0.66637    0.75065   1.00
H2       0.88923    0.62170    0.67637   1.00
H2       0.84899    0.65479    0.67628   1.00
C5       0.84069    0.60370    0.71414   1.00
H2       0.85811    0.58650    0.73541   1.00
H2       0.82891    0.58354    0.69155   1.00
H2       0.81494    0.61687    0.72925   1.00
C5       0.99020    0.79198    0.63047   1.00
H2       1.01218    0.81111    0.61608   1.00
H2       0.96955    0.81150    0.64627   1.00
C5       0.96803    0.76739    0.60010   1.00
H2       0.95666    0.78655    0.57654   1.00
C5       0.63270    0.36773    0.70130   1.00
H2       0.65209    0.35245    0.68031   1.00
H2       0.61566    0.38901    0.68375   1.00
C5       0.60511    0.33781    0.72087   1.00
H2       0.57983    0.33110    0.70161   1.00
H2       0.59411    0.34960    0.74907   1.00
O_3      0.71210    0.52000    0.80975   1.00
C4       0.75034    0.47900    0.74971   1.00
C3c      0.72119    0.45757    0.73047   1.00
H1       0.69818    0.47275    0.71514   1.00
C3d      0.78038    0.45865    0.76904   1.00
C3       0.72089    0.41646    0.73111   1.00
O2       0.69428    0.39752    0.70774   1.00
C3       0.77974    0.41773    0.77036   1.00
H1       0.80261    0.40343    0.78671   1.00
C2       0.75025    0.39561    0.75142   1.00
C5       0.73403    0.52121    0.84461   1.00
H2       0.73859    0.55162    0.85521   1.00
H2       0.76321    0.50734    0.84059   1.00
C5       0.71143    0.49878    0.87547   1.00
H2       0.70591    0.46871    0.86441   1.00
H2       0.68250    0.51309    0.87950   1.00
C5       0.73396    0.49746    0.91412   1.00
H2       0.73981    0.52740    0.92519   1.00
H2       0.76226    0.48197    0.91042   1.00
H2       0.71661    0.48170    0.93655   1.00
C5       0.83959    0.48895    0.76663   1.00
C5       0.66006    0.38930    0.72927   1.00
H2       0.83004    0.50912    0.74307   1.00
H2       0.85357    0.46288    0.75303   1.00
H2       0.64628    0.41700    0.73942   1.00
H2       0.66599    0.37105    0.75569   1.00
H2       0.62032    0.30945    0.72626   1.00
H2       0.88648    0.55750    0.75224   1.00
H2       0.91345    0.51234    0.74537   1.00
C2       0.75043    0.60395    0.75253   1.00
C3       0.76801    0.58403    0.72105   1.00
O2       0.79340    0.60326    0.69642   1.00
C3       0.73138    0.58174    0.78167   1.00
H1       0.71678    0.59615    0.80561   1.00
C3a      0.76708    0.54287    0.71988   1.00
H1       0.78257    0.52798    0.69677   1.00
C3b      0.73159    0.54078    0.78108   1.00
C4       0.74959    0.52100    0.75008   1.00
O_3      0.80806    0.47833    0.79088   1.00
C5       0.77451    0.61280    0.66111   1.00
H2       0.76366    0.58609    0.64591   1.00
C5       0.80462    0.63334    0.63530   1.00
H2       0.74935    0.63274    0.66637   1.00
H2       0.82363    0.61077    0.62170   1.00
H2       0.82372    0.65101    0.65479   1.00
C5       0.78586    0.65931    0.60370   1.00
H2       0.76459    0.64189    0.58650   1.00
H2       0.80845    0.67109    0.58354   1.00
H2       0.77075    0.68506    0.61687   1.00
C5       0.86953    0.50980    0.79198   1.00
H2       0.88392    0.48782    0.81111   1.00
H2       0.85373    0.53045    0.81150   1.00
C5       0.89990    0.53197    0.76739   1.00
H2       0.92346    0.54334    0.78655   1.00
C5       0.70130    0.63270    0.36773   1.00
H2       0.68031    0.65209    0.35245   1.00
H2       0.68375    0.61566    0.38901   1.00
C5       0.72087    0.60511    0.33781   1.00
H2       0.70161    0.57983    0.33110   1.00
H2       0.74907    0.59411    0.34960   1.00
O_3      0.80975    0.71210    0.52000   1.00
C4       0.74971    0.75034    0.47900   1.00
C3c      0.73047    0.72119    0.45757   1.00
H1       0.71514    0.69818    0.47275   1.00
C3d      0.76904    0.78038    0.45865   1.00
C3       0.73111    0.72089    0.41646   1.00
O2       0.70774    0.69428    0.39752   1.00
C3       0.77036    0.77974    0.41773   1.00
H1       0.78671    0.80261    0.40343   1.00
C2       0.75142    0.75025    0.39561   1.00
C5       0.84461    0.73403    0.52121   1.00
H2       0.85521    0.73859    0.55162   1.00
H2       0.84059    0.76321    0.50734   1.00
C5       0.87547    0.71143    0.49878   1.00
H2       0.86441    0.70591    0.46871   1.00
H2       0.87950    0.68250    0.51309   1.00
C5       0.91412    0.73396    0.49746   1.00
H2       0.92519    0.73981    0.52740   1.00
H2       0.91042    0.76226    0.48197   1.00
H2       0.93655    0.71661    0.48170   1.00
C5       0.76663    0.83959    0.48895   1.00
C5       0.72927    0.66006    0.38930   1.00
H2       0.74307    0.83004    0.50912   1.00
H2       0.75303    0.85357    0.46288   1.00
H2       0.73942    0.64628    0.41700   1.00
H2       0.75569    0.66599    0.37105   1.00
H2       0.72626    0.62032    0.30945   1.00
H2       0.75224    0.88648    0.55750   1.00
H2       0.74537    0.91345    0.51234   1.00
C2       0.75253    0.75043    0.60395   1.00
C3       0.72105    0.76801    0.58403   1.00
O2       0.69642    0.79340    0.60326   1.00
C3       0.78167    0.73138    0.58174   1.00
H1       0.80561    0.71678    0.59615   1.00
C3a      0.71988    0.76708    0.54287   1.00
H1       0.69677    0.78257    0.52798   1.00
C3b      0.78108    0.73159    0.54078   1.00
C4       0.75008    0.74959    0.52100   1.00
O_3      0.79088    0.80806    0.47833   1.00
C5       0.66111    0.77451    0.61280   1.00
H2       0.64591    0.76366    0.58609   1.00
C5       0.63530    0.80462    0.63334   1.00
H2       0.66637    0.74935    0.63274   1.00
H2       0.62170    0.82363    0.61077   1.00
H2       0.65479    0.82372    0.65101   1.00
C5       0.60370    0.78586    0.65931   1.00
H2       0.58650    0.76459    0.64189   1.00
H2       0.58354    0.80845    0.67109   1.00
H2       0.61687    0.77075    0.68506   1.00
C5       0.79198    0.86953    0.50980   1.00
H2       0.81111    0.88392    0.48782   1.00
H2       0.81150    0.85373    0.53045   1.00
C5       0.76739    0.89990    0.53197   1.00
H2       0.78655    0.92346    0.54334   1.00
C5       0.20130    0.36730    1.13227   1.00
H2       0.18031    0.34791    1.14755   1.00
H2       0.18375    0.38434    1.11099   1.00
C5       0.22087    0.39489    1.16219   1.00
H2       0.20161    0.42017    1.16890   1.00
H2       0.24907    0.40589    1.15040   1.00
O_3      0.30975    0.28790    0.98000   1.00
C4       0.24971    0.24966    1.02100   1.00
C3c      0.23047    0.27881    1.04243   1.00
H1       0.21514    0.30182    1.02725   1.00
C3d      0.26904    0.21962    1.04135   1.00
C3       0.23111    0.27911    1.08354   1.00
O2       0.20774    0.30572    1.10248   1.00
C3       0.27036    0.22026    1.08227   1.00
H1       0.28671    0.19739    1.09657   1.00
C2       0.25142    0.24975    1.10439   1.00
C5       0.34461    0.26597    0.97879   1.00
H2       0.35521    0.26141    0.94838   1.00
H2       0.34059    0.23679    0.99266   1.00
C5       0.37547    0.28857    1.00122   1.00
H2       0.36441    0.29409    1.03129   1.00
H2       0.37950    0.31750    0.98691   1.00
C5       0.41412    0.26604    1.00254   1.00
H2       0.42519    0.26019    0.97260   1.00
H2       0.41042    0.23774    1.01803   1.00
H2       0.43655    0.28339    1.01830   1.00
C5       0.26663    0.16041    1.01105   1.00
C5       0.22927    0.33994    1.11070   1.00
H2       0.24307    0.16996    0.99088   1.00
H2       0.25303    0.14643    1.03712   1.00
H2       0.23942    0.35372    1.08300   1.00
H2       0.25569    0.33401    1.12895   1.00
H2       0.22626    0.37968    1.19055   1.00
H2       0.25224    0.11352    0.94250   1.00
H2       0.24537    0.08655    0.98766   1.00
C2       0.25253    0.24957    0.89605   1.00
C3       0.22105    0.23199    0.91597   1.00
O2       0.19642    0.20660    0.89674   1.00
C3       0.28167    0.26862    0.91826   1.00
H1       0.30561    0.28322    0.90385   1.00
C3a      0.21988    0.23292    0.95713   1.00
H1       0.19677    0.21743    0.97202   1.00
C3b      0.28108    0.26841    0.95922   1.00
C4       0.25008    0.25041    0.97900   1.00
O_3      0.29088    0.19194    1.02167   1.00
C5       0.16111    0.22549    0.88720   1.00
H2       0.14591    0.23634    0.91391   1.00
C5       0.13530    0.19538    0.86666   1.00
H2       0.16637    0.25065    0.86726   1.00
H2       0.12170    0.17637    0.88923   1.00
H2       0.15479    0.17628    0.84899   1.00
C5       0.10370    0.21414    0.84069   1.00
H2       0.08650    0.23541    0.85811   1.00
H2       0.08354    0.19155    0.82891   1.00
H2       0.11687    0.22925    0.81494   1.00
C5       0.29198    0.13047    0.99020   1.00
H2       0.31111    0.11608    1.01218   1.00
H2       0.31150    0.14627    0.96955   1.00
C5       0.26739    0.10010    0.96803   1.00
H2       0.28655    0.07654    0.95666   1.00
C5       0.36730    0.63227    0.70130   1.00
H2       0.34791    0.64755    0.68031   1.00
H2       0.38434    0.61099    0.68375   1.00
C5       0.39489    0.66219    0.72087   1.00
H2       0.42017    0.66890    0.70161   1.00
H2       0.40589    0.65040    0.74907   1.00
O_3      0.28790    0.48000    0.80975   1.00
C4       0.24966    0.52100    0.74971   1.00
C3c      0.27881    0.54243    0.73047   1.00
H1       0.30182    0.52725    0.71514   1.00
C3d      0.21962    0.54135    0.76904   1.00
C3       0.27911    0.58354    0.73111   1.00
O2       0.30572    0.60248    0.70774   1.00
C3       0.22026    0.58227    0.77036   1.00
H1       0.19739    0.59657    0.78671   1.00
C2       0.24975    0.60439    0.75142   1.00
C5       0.26597    0.47879    0.84461   1.00
H2       0.26141    0.44838    0.85521   1.00
H2       0.23679    0.49266    0.84059   1.00
C5       0.28857    0.50122    0.87547   1.00
H2       0.29409    0.53129    0.86441   1.00
H2       0.31750    0.48691    0.87950   1.00
C5       0.26604    0.50254    0.91412   1.00
H2       0.26019    0.47260    0.92519   1.00
H2       0.23774    0.51803    0.91042   1.00
H2       0.28339    0.51830    0.93655   1.00
C5       0.16041    0.51105    0.76663   1.00
C5       0.33994    0.61070    0.72927   1.00
H2       0.16996    0.49088    0.74307   1.00
H2       0.14643    0.53712    0.75303   1.00
H2       0.35372    0.58300    0.73942   1.00
H2       0.33401    0.62895    0.75569   1.00
H2       0.37968    0.69055    0.72626   1.00
H2       0.11352    0.44250    0.75224   1.00
H2       0.08655    0.48766    0.74537   1.00
C2       0.24957    0.39605    0.75253   1.00
C3       0.23199    0.41597    0.72105   1.00
O2       0.20660    0.39674    0.69642   1.00
C3       0.26862    0.41826    0.78167   1.00
H1       0.28322    0.40385    0.80561   1.00
C3a      0.23292    0.45713    0.71988   1.00
H1       0.21743    0.47202    0.69677   1.00
C3b      0.26841    0.45922    0.78108   1.00
C4       0.25041    0.47900    0.75008   1.00
O_3      0.19194    0.52167    0.79088   1.00
C5       0.22549    0.38720    0.66111   1.00
H2       0.23634    0.41391    0.64591   1.00
C5       0.19538    0.36666    0.63530   1.00
H2       0.25065    0.36726    0.66637   1.00
H2       0.17637    0.38923    0.62170   1.00
H2       0.17628    0.34899    0.65479   1.00
C5       0.21414    0.34069    0.60370   1.00
H2       0.23541    0.35811    0.58650   1.00
H2       0.19155    0.32891    0.58354   1.00
H2       0.22925    0.31494    0.61687   1.00
C5       0.13047    0.49020    0.79198   1.00
H2       0.11608    0.51218    0.81111   1.00
H2       0.14627    0.46955    0.81150   1.00
C5       0.10010    0.46803    0.76739   1.00
H2       0.07654    0.45666    0.78655   1.00
C5       -0.13227   0.20130    0.63270   1.00
H2       -0.14755   0.18031    0.65209   1.00
H2       -0.11099   0.18375    0.61566   1.00
C5       -0.16219   0.22087    0.60511   1.00
H2       -0.16890   0.20161    0.57983   1.00
H2       -0.15040   0.24907    0.59411   1.00
O_3      0.02000    0.30975    0.71210   1.00
C4       -0.02100   0.24971    0.75034   1.00
C3c      -0.04243   0.23047    0.72119   1.00
H1       -0.02725   0.21514    0.69818   1.00
C3d      -0.04135   0.26904    0.78038   1.00
C3       -0.08354   0.23111    0.72089   1.00
O2       -0.10248   0.20774    0.69428   1.00
C3       -0.08227   0.27036    0.77974   1.00
H1       -0.09657   0.28671    0.80261   1.00
C2       -0.10439   0.25142    0.75025   1.00
C5       0.02121    0.34461    0.73403   1.00
H2       0.05162    0.35521    0.73859   1.00
H2       0.00734    0.34059    0.76321   1.00
C5       -0.00122   0.37547    0.71143   1.00
H2       -0.03129   0.36441    0.70591   1.00
H2       0.01309    0.37950    0.68250   1.00
C5       -0.00254   0.41412    0.73396   1.00
H2       0.02740    0.42519    0.73981   1.00
H2       -0.01803   0.41042    0.76226   1.00
H2       -0.01830   0.43655    0.71661   1.00
C5       -0.01105   0.26663    0.83959   1.00
C5       -0.11070   0.22927    0.66006   1.00
H2       0.00912    0.24307    0.83004   1.00
H2       -0.03712   0.25303    0.85357   1.00
H2       -0.08300   0.23942    0.64628   1.00
H2       -0.12895   0.25569    0.66599   1.00
H2       -0.19055   0.22626    0.62032   1.00
H2       0.05750    0.25224    0.88648   1.00
H2       0.01234    0.24537    0.91345   1.00
C2       0.10395    0.25253    0.75043   1.00
C3       0.08403    0.22105    0.76801   1.00
O2       0.10326    0.19642    0.79340   1.00
C3       0.08174    0.28167    0.73138   1.00
H1       0.09615    0.30561    0.71678   1.00
C3a      0.04287    0.21988    0.76708   1.00
H1       0.02798    0.19677    0.78257   1.00
C3b      0.04078    0.28108    0.73159   1.00
C4       0.02100    0.25008    0.74959   1.00
O_3      -0.02167   0.29088    0.80806   1.00
C5       0.11280    0.16111    0.77451   1.00
H2       0.08609    0.14591    0.76366   1.00
C5       0.13334    0.13530    0.80462   1.00
H2       0.13274    0.16637    0.74935   1.00
H2       0.11077    0.12170    0.82363   1.00
H2       0.15101    0.15479    0.82372   1.00
C5       0.15931    0.10370    0.78586   1.00
H2       0.14189    0.08650    0.76459   1.00
H2       0.17109    0.08354    0.80845   1.00
H2       0.18506    0.11687    0.77075   1.00
C5       0.00980    0.29198    0.86953   1.00
H2       -0.01218   0.31111    0.88392   1.00
H2       0.03045    0.31150    0.85373   1.00
C5       0.03197    0.26739    0.89990   1.00
H2       0.04334    0.28655    0.92346   1.00
C5       0.63227    0.20130    0.86730   1.00
H2       0.64755    0.18031    0.84791   1.00
H2       0.61099    0.18375    0.88434   1.00
C5       0.66219    0.22087    0.89489   1.00
H2       0.66890    0.20161    0.92017   1.00
H2       0.65040    0.24907    0.90589   1.00
O_3      0.48000    0.30975    0.78790   1.00
C4       0.52100    0.24971    0.74966   1.00
C3c      0.54243    0.23047    0.77881   1.00
H1       0.52725    0.21514    0.80182   1.00
C3d      0.54135    0.26904    0.71962   1.00
C3       0.58354    0.23111    0.77911   1.00
O2       0.60248    0.20774    0.80572   1.00
C3       0.58227    0.27036    0.72026   1.00
H1       0.59657    0.28671    0.69739   1.00
C2       0.60439    0.25142    0.74975   1.00
C5       0.47879    0.34461    0.76597   1.00
H2       0.44838    0.35521    0.76141   1.00
H2       0.49266    0.34059    0.73679   1.00
C5       0.50122    0.37547    0.78857   1.00
H2       0.53129    0.36441    0.79409   1.00
H2       0.48691    0.37950    0.81750   1.00
C5       0.50254    0.41412    0.76604   1.00
H2       0.47260    0.42519    0.76019   1.00
H2       0.51803    0.41042    0.73774   1.00
H2       0.51830    0.43655    0.78339   1.00
C5       0.51105    0.26663    0.66041   1.00
C5       0.61070    0.22927    0.83994   1.00
H2       0.49088    0.24307    0.66996   1.00
H2       0.53712    0.25303    0.64643   1.00
H2       0.58300    0.23942    0.85372   1.00
H2       0.62895    0.25569    0.83401   1.00
H2       0.69055    0.22626    0.87968   1.00
H2       0.44250    0.25224    0.61352   1.00
H2       0.48766    0.24537    0.58655   1.00
C2       0.39605    0.25253    0.74957   1.00
C3       0.41597    0.22105    0.73199   1.00
O2       0.39674    0.19642    0.70660   1.00
C3       0.41826    0.28167    0.76862   1.00
H1       0.40385    0.30561    0.78322   1.00
C3a      0.45713    0.21988    0.73292   1.00
H1       0.47202    0.19677    0.71743   1.00
C3b      0.45922    0.28108    0.76841   1.00
C4       0.47900    0.25008    0.75041   1.00
O_3      0.52167    0.29088    0.69194   1.00
C5       0.38720    0.16111    0.72549   1.00
H2       0.41391    0.14591    0.73634   1.00
C5       0.36666    0.13530    0.69538   1.00
H2       0.36726    0.16637    0.75065   1.00
H2       0.38923    0.12170    0.67637   1.00
H2       0.34899    0.15479    0.67628   1.00
C5       0.34069    0.10370    0.71414   1.00
H2       0.35811    0.08650    0.73541   1.00
H2       0.32891    0.08354    0.69155   1.00
H2       0.31494    0.11687    0.72925   1.00
C5       0.49020    0.29198    0.63047   1.00
H2       0.51218    0.31111    0.61608   1.00
H2       0.46955    0.31150    0.64627   1.00
C5       0.46803    0.26739    0.60010   1.00
H2       0.45666    0.28655    0.57654   1.00
C5       0.13270    -0.13227   0.70130   1.00
H2       0.15209    -0.14755   0.68031   1.00
H2       0.11566    -0.11099   0.68375   1.00
C5       0.10511    -0.16219   0.72087   1.00
H2       0.07983    -0.16890   0.70161   1.00
H2       0.09411    -0.15040   0.74907   1.00
O_3      0.21210    0.02000    0.80975   1.00
C4       0.25034    -0.02100   0.74971   1.00
C3c      0.22119    -0.04243   0.73047   1.00
H1       0.19818    -0.02725   0.71514   1.00
C3d      0.28038    -0.04135   0.76904   1.00
C3       0.22089    -0.08354   0.73111   1.00
O2       0.19428    -0.10248   0.70774   1.00
C3       0.27974    -0.08227   0.77036   1.00
H1       0.30261    -0.09657   0.78671   1.00
C2       0.25025    -0.10439   0.75142   1.00
C5       0.23403    0.02121    0.84461   1.00
H2       0.23859    0.05162    0.85521   1.00
H2       0.26321    0.00734    0.84059   1.00
C5       0.21143    -0.00122   0.87547   1.00
H2       0.20591    -0.03129   0.86441   1.00
H2       0.18250    0.01309    0.87950   1.00
C5       0.23396    -0.00254   0.91412   1.00
H2       0.23981    0.02740    0.92519   1.00
H2       0.26226    -0.01803   0.91042   1.00
H2       0.21661    -0.01830   0.93655   1.00
C5       0.33959    -0.01105   0.76663   1.00
C5       0.16006    -0.11070   0.72927   1.00
H2       0.33004    0.00912    0.74307   1.00
H2       0.35357    -0.03712   0.75303   1.00
H2       0.14628    -0.08300   0.73942   1.00
H2       0.16599    -0.12895   0.75569   1.00
H2       0.12032    -0.19055   0.72626   1.00
H2       0.38648    0.05750    0.75224   1.00
H2       0.41345    0.01234    0.74537   1.00
C2       0.25043    0.10395    0.75253   1.00
C3       0.26801    0.08403    0.72105   1.00
O2       0.29340    0.10326    0.69642   1.00
C3       0.23138    0.08174    0.78167   1.00
H1       0.21678    0.09615    0.80561   1.00
C3a      0.26708    0.04287    0.71988   1.00
H1       0.28257    0.02798    0.69677   1.00
C3b      0.23159    0.04078    0.78108   1.00
C4       0.24959    0.02100    0.75008   1.00
O_3      0.30806    -0.02167   0.79088   1.00
C5       0.27451    0.11280    0.66111   1.00
H2       0.26366    0.08609    0.64591   1.00
C5       0.30462    0.13334    0.63530   1.00
H2       0.24935    0.13274    0.66637   1.00
H2       0.32363    0.11077    0.62170   1.00
H2       0.32372    0.15101    0.65479   1.00
C5       0.28586    0.15931    0.60370   1.00
H2       0.26459    0.14189    0.58650   1.00
H2       0.30845    0.17109    0.58354   1.00
H2       0.27075    0.18506    0.61687   1.00
C5       0.36953    0.00980    0.79198   1.00
H2       0.38392    -0.01218   0.81111   1.00
H2       0.35373    0.03045    0.81150   1.00
C5       0.39990    0.03197    0.76739   1.00
H2       0.42346    0.04334    0.78655   1.00
C5       0.20130    0.13270    0.36773   1.00
H2       0.18031    0.15209    0.35245   1.00
H2       0.18375    0.11566    0.38901   1.00
C5       0.22087    0.10511    0.33781   1.00
H2       0.20161    0.07983    0.33110   1.00
H2       0.24907    0.09411    0.34960   1.00
O_3      0.30975    0.21210    0.52000   1.00
C4       0.24971    0.25034    0.47900   1.00
C3c      0.23047    0.22119    0.45757   1.00
H1       0.21514    0.19818    0.47275   1.00
C3d      0.26904    0.28038    0.45865   1.00
C3       0.23111    0.22089    0.41646   1.00
O2       0.20774    0.19428    0.39752   1.00
C3       0.27036    0.27974    0.41773   1.00
H1       0.28671    0.30261    0.40343   1.00
C2       0.25142    0.25025    0.39561   1.00
C5       0.34461    0.23403    0.52121   1.00
H2       0.35521    0.23859    0.55162   1.00
H2       0.34059    0.26321    0.50734   1.00
C5       0.37547    0.21143    0.49878   1.00
H2       0.36441    0.20591    0.46871   1.00
H2       0.37950    0.18250    0.51309   1.00
C5       0.41412    0.23396    0.49746   1.00
H2       0.42519    0.23981    0.52740   1.00
H2       0.41042    0.26226    0.48197   1.00
H2       0.43655    0.21661    0.48170   1.00
C5       0.26663    0.33959    0.48895   1.00
C5       0.22927    0.16006    0.38930   1.00
H2       0.24307    0.33004    0.50912   1.00
H2       0.25303    0.35357    0.46288   1.00
H2       0.23942    0.14628    0.41700   1.00
H2       0.25569    0.16599    0.37105   1.00
H2       0.22626    0.12032    0.30945   1.00
H2       0.25224    0.38648    0.55750   1.00
H2       0.24537    0.41345    0.51234   1.00
C2       0.25253    0.25043    0.60395   1.00
C3       0.22105    0.26801    0.58403   1.00
O2       0.19642    0.29340    0.60326   1.00
C3       0.28167    0.23138    0.58174   1.00
H1       0.30561    0.21678    0.59615   1.00
C3a      0.21988    0.26708    0.54287   1.00
H1       0.19677    0.28257    0.52798   1.00
C3b      0.28108    0.23159    0.54078   1.00
C4       0.25008    0.24959    0.52100   1.00
O_3      0.29088    0.30806    0.47833   1.00
C5       0.16111    0.27451    0.61280   1.00
H2       0.14591    0.26366    0.58609   1.00
C5       0.13530    0.30462    0.63334   1.00
H2       0.16637    0.24935    0.63274   1.00
H2       0.12170    0.32363    0.61077   1.00
H2       0.15479    0.32372    0.65101   1.00
C5       0.10370    0.28586    0.65931   1.00
H2       0.08650    0.26459    0.64189   1.00
H2       0.08354    0.30845    0.67109   1.00
H2       0.11687    0.27075    0.68506   1.00
C5       0.29198    0.36953    0.50980   1.00
H2       0.31111    0.38392    0.48782   1.00
H2       0.31150    0.35373    0.53045   1.00
C5       0.26739    0.39990    0.53197   1.00
H2       0.28655    0.42346    0.54334   1.00
C5       0.20130    0.86730    0.63227   1.00
H2       0.18031    0.84791    0.64755   1.00
H2       0.18375    0.88434    0.61099   1.00
C5       0.22087    0.89489    0.66219   1.00
H2       0.20161    0.92017    0.66890   1.00
H2       0.24907    0.90589    0.65040   1.00
O_3      0.30975    0.78790    0.48000   1.00
C4       0.24971    0.74966    0.52100   1.00
C3c      0.23047    0.77881    0.54243   1.00
H1       0.21514    0.80182    0.52725   1.00
C3d      0.26904    0.71962    0.54135   1.00
C3       0.23111    0.77911    0.58354   1.00
O2       0.20774    0.80572    0.60248   1.00
C3       0.27036    0.72026    0.58227   1.00
H1       0.28671    0.69739    0.59657   1.00
C2       0.25142    0.74975    0.60439   1.00
C5       0.34461    0.76597    0.47879   1.00
H2       0.35521    0.76141    0.44838   1.00
H2       0.34059    0.73679    0.49266   1.00
C5       0.37547    0.78857    0.50122   1.00
H2       0.36441    0.79409    0.53129   1.00
H2       0.37950    0.81750    0.48691   1.00
C5       0.41412    0.76604    0.50254   1.00
H2       0.42519    0.76019    0.47260   1.00
H2       0.41042    0.73774    0.51803   1.00
H2       0.43655    0.78339    0.51830   1.00
C5       0.26663    0.66041    0.51105   1.00
C5       0.22927    0.83994    0.61070   1.00
H2       0.24307    0.66996    0.49088   1.00
H2       0.25303    0.64643    0.53712   1.00
H2       0.23942    0.85372    0.58300   1.00
H2       0.25569    0.83401    0.62895   1.00
H2       0.22626    0.87968    0.69055   1.00
H2       0.25224    0.61352    0.44250   1.00
H2       0.24537    0.58655    0.48766   1.00
C2       0.25253    0.74957    0.39605   1.00
C3       0.22105    0.73199    0.41597   1.00
O2       0.19642    0.70660    0.39674   1.00
C3       0.28167    0.76862    0.41826   1.00
H1       0.30561    0.78322    0.40385   1.00
C3a      0.21988    0.73292    0.45713   1.00
H1       0.19677    0.71743    0.47202   1.00
C3b      0.28108    0.76841    0.45922   1.00
C4       0.25008    0.75041    0.47900   1.00
O_3      0.29088    0.69194    0.52167   1.00
C5       0.16111    0.72549    0.38720   1.00
H2       0.14591    0.73634    0.41391   1.00
C5       0.13530    0.69538    0.36666   1.00
H2       0.16637    0.75065    0.36726   1.00
H2       0.12170    0.67637    0.38923   1.00
H2       0.15479    0.67628    0.34899   1.00
C5       0.10370    0.71414    0.34069   1.00
H2       0.08650    0.73541    0.35811   1.00
H2       0.08354    0.69155    0.32891   1.00
H2       0.11687    0.72925    0.31494   1.00
C5       0.29198    0.63047    0.49020   1.00
H2       0.31111    0.61608    0.51218   1.00
H2       0.31150    0.64627    0.46955   1.00
C5       0.26739    0.60010    0.46803   1.00
H2       0.28655    0.57654    0.45666   1.00
C5       0.36730    1.13227    0.20130   1.00
H2       0.34791    1.14755    0.18031   1.00
H2       0.38434    1.11099    0.18375   1.00
C5       0.39489    1.16219    0.22087   1.00
H2       0.42017    1.16890    0.20161   1.00
H2       0.40589    1.15040    0.24907   1.00
O_3      0.28790    0.98000    0.30975   1.00
C4       0.24966    1.02100    0.24971   1.00
C3c      0.27881    1.04243    0.23047   1.00
H1       0.30182    1.02725    0.21514   1.00
C3d      0.21962    1.04135    0.26904   1.00
C3       0.27911    1.08354    0.23111   1.00
O2       0.30572    1.10248    0.20774   1.00
C3       0.22026    1.08227    0.27036   1.00
H1       0.19739    1.09657    0.28671   1.00
C2       0.24975    1.10439    0.25142   1.00
C5       0.26597    0.97879    0.34461   1.00
H2       0.26141    0.94838    0.35521   1.00
H2       0.23679    0.99266    0.34059   1.00
C5       0.28857    1.00122    0.37547   1.00
H2       0.29409    1.03129    0.36441   1.00
H2       0.31750    0.98691    0.37950   1.00
C5       0.26604    1.00254    0.41412   1.00
H2       0.26019    0.97260    0.42519   1.00
H2       0.23774    1.01803    0.41042   1.00
H2       0.28339    1.01830    0.43655   1.00
C5       0.16041    1.01105    0.26663   1.00
C5       0.33994    1.11070    0.22927   1.00
H2       0.16996    0.99088    0.24307   1.00
H2       0.14643    1.03712    0.25303   1.00
H2       0.35372    1.08300    0.23942   1.00
H2       0.33401    1.12895    0.25569   1.00
H2       0.37968    1.19055    0.22626   1.00
H2       0.11352    0.94250    0.25224   1.00
H2       0.08655    0.98766    0.24537   1.00
C2       0.24957    0.89605    0.25253   1.00
C3       0.23199    0.91597    0.22105   1.00
O2       0.20660    0.89674    0.19642   1.00
C3       0.26862    0.91826    0.28167   1.00
H1       0.28322    0.90385    0.30561   1.00
C3a      0.23292    0.95713    0.21988   1.00
H1       0.21743    0.97202    0.19677   1.00
C3b      0.26841    0.95922    0.28108   1.00
C4       0.25041    0.97900    0.25008   1.00
O_3      0.19194    1.02167    0.29088   1.00
C5       0.22549    0.88720    0.16111   1.00
H2       0.23634    0.91391    0.14591   1.00
C5       0.19538    0.86666    0.13530   1.00
H2       0.25065    0.86726    0.16637   1.00
H2       0.17637    0.88923    0.12170   1.00
H2       0.17628    0.84899    0.15479   1.00
C5       0.21414    0.84069    0.10370   1.00
H2       0.23541    0.85811    0.08650   1.00
H2       0.19155    0.82891    0.08354   1.00
H2       0.22925    0.81494    0.11687   1.00
C5       0.13047    0.99020    0.29198   1.00
H2       0.11608    1.01218    0.31111   1.00
H2       0.14627    0.96955    0.31150   1.00
C5       0.10010    0.96803    0.26739   1.00
H2       0.07654    0.95666    0.28655   1.00
C5       -0.13227   0.70130    0.13270   1.00
H2       -0.14755   0.68031    0.15209   1.00
H2       -0.11099   0.68375    0.11566   1.00
C5       -0.16219   0.72087    0.10511   1.00
H2       -0.16890   0.70161    0.07983   1.00
H2       -0.15040   0.74907    0.09411   1.00
O_3      0.02000    0.80975    0.21210   1.00
C4       -0.02100   0.74971    0.25034   1.00
C3c      -0.04243   0.73047    0.22119   1.00
H1       -0.02725   0.71514    0.19818   1.00
C3d      -0.04135   0.76904    0.28038   1.00
C3       -0.08354   0.73111    0.22089   1.00
O2       -0.10248   0.70774    0.19428   1.00
C3       -0.08227   0.77036    0.27974   1.00
H1       -0.09657   0.78671    0.30261   1.00
C2       -0.10439   0.75142    0.25025   1.00
C5       0.02121    0.84461    0.23403   1.00
H2       0.05162    0.85521    0.23859   1.00
H2       0.00734    0.84059    0.26321   1.00
C5       -0.00122   0.87547    0.21143   1.00
H2       -0.03129   0.86441    0.20591   1.00
H2       0.01309    0.87950    0.18250   1.00
C5       -0.00254   0.91412    0.23396   1.00
H2       0.02740    0.92519    0.23981   1.00
H2       -0.01803   0.91042    0.26226   1.00
H2       -0.01830   0.93655    0.21661   1.00
C5       -0.01105   0.76663    0.33959   1.00
C5       -0.11070   0.72927    0.16006   1.00
H2       0.00912    0.74307    0.33004   1.00
H2       -0.03712   0.75303    0.35357   1.00
H2       -0.08300   0.73942    0.14628   1.00
H2       -0.12895   0.75569    0.16599   1.00
H2       -0.19055   0.72626    0.12032   1.00
H2       0.05750    0.75224    0.38648   1.00
H2       0.01234    0.74537    0.41345   1.00
C2       0.10395    0.75253    0.25043   1.00
C3       0.08403    0.72105    0.26801   1.00
O2       0.10326    0.69642    0.29340   1.00
C3       0.08174    0.78167    0.23138   1.00
H1       0.09615    0.80561    0.21678   1.00
C3a      0.04287    0.71988    0.26708   1.00
H1       0.02798    0.69677    0.28257   1.00
C3b      0.04078    0.78108    0.23159   1.00
C4       0.02100    0.75008    0.24959   1.00
O_3      -0.02167   0.79088    0.30806   1.00
C5       0.11280    0.66111    0.27451   1.00
H2       0.08609    0.64591    0.26366   1.00
C5       0.13334    0.63530    0.30462   1.00
H2       0.13274    0.66637    0.24935   1.00
H2       0.11077    0.62170    0.32363   1.00
H2       0.15101    0.65479    0.32372   1.00
C5       0.15931    0.60370    0.28586   1.00
H2       0.14189    0.58650    0.26459   1.00
H2       0.17109    0.58354    0.30845   1.00
H2       0.18506    0.61687    0.27075   1.00
C5       0.00980    0.79198    0.36953   1.00
H2       -0.01218   0.81111    0.38392   1.00
H2       0.03045    0.81150    0.35373   1.00
C5       0.03197    0.76739    0.39990   1.00
H2       0.04334    0.78655    0.42346   1.00
C5       0.63227    0.70130    0.36730   1.00
H2       0.64755    0.68031    0.34791   1.00
H2       0.61099    0.68375    0.38434   1.00
C5       0.66219    0.72087    0.39489   1.00
H2       0.66890    0.70161    0.42017   1.00
H2       0.65040    0.74907    0.40589   1.00
O_3      0.48000    0.80975    0.28790   1.00
C4       0.52100    0.74971    0.24966   1.00
C3c      0.54243    0.73047    0.27881   1.00
H1       0.52725    0.71514    0.30182   1.00
C3d      0.54135    0.76904    0.21962   1.00
C3       0.58354    0.73111    0.27911   1.00
O2       0.60248    0.70774    0.30572   1.00
C3       0.58227    0.77036    0.22026   1.00
H1       0.59657    0.78671    0.19739   1.00
C2       0.60439    0.75142    0.24975   1.00
C5       0.47879    0.84461    0.26597   1.00
H2       0.44838    0.85521    0.26141   1.00
H2       0.49266    0.84059    0.23679   1.00
C5       0.50122    0.87547    0.28857   1.00
H2       0.53129    0.86441    0.29409   1.00
H2       0.48691    0.87950    0.31750   1.00
C5       0.50254    0.91412    0.26604   1.00
H2       0.47260    0.92519    0.26019   1.00
H2       0.51803    0.91042    0.23774   1.00
H2       0.51830    0.93655    0.28339   1.00
C5       0.51105    0.76663    0.16041   1.00
C5       0.61070    0.72927    0.33994   1.00
H2       0.49088    0.74307    0.16996   1.00
H2       0.53712    0.75303    0.14643   1.00
H2       0.58300    0.73942    0.35372   1.00
H2       0.62895    0.75569    0.33401   1.00
H2       0.69055    0.72626    0.37968   1.00
H2       0.44250    0.75224    0.11352   1.00
H2       0.48766    0.74537    0.08655   1.00
C2       0.39605    0.75253    0.24957   1.00
C3       0.41597    0.72105    0.23199   1.00
O2       0.39674    0.69642    0.20660   1.00
C3       0.41826    0.78167    0.26862   1.00
H1       0.40385    0.80561    0.28322   1.00
C3a      0.45713    0.71988    0.23292   1.00
H1       0.47202    0.69677    0.21743   1.00
C3b      0.45922    0.78108    0.26841   1.00
C4       0.47900    0.75008    0.25041   1.00
O_3      0.52167    0.79088    0.19194   1.00
C5       0.38720    0.66111    0.22549   1.00
H2       0.41391    0.64591    0.23634   1.00
C5       0.36666    0.63530    0.19538   1.00
H2       0.36726    0.66637    0.25065   1.00
H2       0.38923    0.62170    0.17637   1.00
H2       0.34899    0.65479    0.17628   1.00
C5       0.34069    0.60370    0.21414   1.00
H2       0.35811    0.58650    0.23541   1.00
H2       0.32891    0.58354    0.19155   1.00
H2       0.31494    0.61687    0.22925   1.00
C5       0.49020    0.79198    0.13047   1.00
H2       0.51218    0.81111    0.11608   1.00
H2       0.46955    0.81150    0.14627   1.00
C5       0.46803    0.76739    0.10010   1.00
H2       0.45666    0.78655    0.07654   1.00
C5       0.13270    0.36773    0.20130   1.00
H2       0.15209    0.35245    0.18031   1.00
H2       0.11566    0.38901    0.18375   1.00
C5       0.10511    0.33781    0.22087   1.00
H2       0.07983    0.33110    0.20161   1.00
H2       0.09411    0.34960    0.24907   1.00
O_3      0.21210    0.52000    0.30975   1.00
C4       0.25034    0.47900    0.24971   1.00
C3c      0.22119    0.45757    0.23047   1.00
H1       0.19818    0.47275    0.21514   1.00
C3d      0.28038    0.45865    0.26904   1.00
C3       0.22089    0.41646    0.23111   1.00
O2       0.19428    0.39752    0.20774   1.00
C3       0.27974    0.41773    0.27036   1.00
H1       0.30261    0.40343    0.28671   1.00
C2       0.25025    0.39561    0.25142   1.00
C5       0.23403    0.52121    0.34461   1.00
H2       0.23859    0.55162    0.35521   1.00
H2       0.26321    0.50734    0.34059   1.00
C5       0.21143    0.49878    0.37547   1.00
H2       0.20591    0.46871    0.36441   1.00
H2       0.18250    0.51309    0.37950   1.00
C5       0.23396    0.49746    0.41412   1.00
H2       0.23981    0.52740    0.42519   1.00
H2       0.26226    0.48197    0.41042   1.00
H2       0.21661    0.48170    0.43655   1.00
C5       0.33959    0.48895    0.26663   1.00
C5       0.16006    0.38930    0.22927   1.00
H2       0.33004    0.50912    0.24307   1.00
H2       0.35357    0.46288    0.25303   1.00
H2       0.14628    0.41700    0.23942   1.00
H2       0.16599    0.37105    0.25569   1.00
H2       0.12032    0.30945    0.22626   1.00
H2       0.38648    0.55750    0.25224   1.00
H2       0.41345    0.51234    0.24537   1.00
C2       0.25043    0.60395    0.25253   1.00
C3       0.26801    0.58403    0.22105   1.00
O2       0.29340    0.60326    0.19642   1.00
C3       0.23138    0.58174    0.28167   1.00
H1       0.21678    0.59615    0.30561   1.00
C3a      0.26708    0.54287    0.21988   1.00
H1       0.28257    0.52798    0.19677   1.00
C3b      0.23159    0.54078    0.28108   1.00
C4       0.24959    0.52100    0.25008   1.00
O_3      0.30806    0.47833    0.29088   1.00
C5       0.27451    0.61280    0.16111   1.00
H2       0.26366    0.58609    0.14591   1.00
C5       0.30462    0.63334    0.13530   1.00
H2       0.24935    0.63274    0.16637   1.00
H2       0.32363    0.61077    0.12170   1.00
H2       0.32372    0.65101    0.15479   1.00
C5       0.28586    0.65931    0.10370   1.00
H2       0.26459    0.64189    0.08650   1.00
H2       0.30845    0.67109    0.08354   1.00
H2       0.27075    0.68506    0.11687   1.00
C5       0.36953    0.50980    0.29198   1.00
H2       0.38392    0.48782    0.31111   1.00
H2       0.35373    0.53045    0.31150   1.00
C5       0.39990    0.53197    0.26739   1.00
H2       0.42346    0.54334    0.28655   1.00
C5       0.20130    0.63270    -0.13227   1.00
H2       0.18031    0.65209    -0.14755   1.00
H2       0.18375    0.61566    -0.11099   1.00
C5       0.22087    0.60511    -0.16219   1.00
H2       0.20161    0.57983    -0.16890   1.00
H2       0.24907    0.59411    -0.15040   1.00
O_3      0.30975    0.71210    0.02000   1.00
C4       0.24971    0.75034    -0.02100   1.00
C3c      0.23047    0.72119    -0.04243   1.00
H1       0.21514    0.69818    -0.02725   1.00
C3d      0.26904    0.78038    -0.04135   1.00
C3       0.23111    0.72089    -0.08354   1.00
O2       0.20774    0.69428    -0.10248   1.00
C3       0.27036    0.77974    -0.08227   1.00
H1       0.28671    0.80261    -0.09657   1.00
C2       0.25142    0.75025    -0.10439   1.00
C5       0.34461    0.73403    0.02121   1.00
H2       0.35521    0.73859    0.05162   1.00
H2       0.34059    0.76321    0.00734   1.00
C5       0.37547    0.71143    -0.00122   1.00
H2       0.36441    0.70591    -0.03129   1.00
H2       0.37950    0.68250    0.01309   1.00
C5       0.41412    0.73396    -0.00254   1.00
H2       0.42519    0.73981    0.02740   1.00
H2       0.41042    0.76226    -0.01803   1.00
H2       0.43655    0.71661    -0.01830   1.00
C5       0.26663    0.83959    -0.01105   1.00
C5       0.22927    0.66006    -0.11070   1.00
H2       0.24307    0.83004    0.00912   1.00
H2       0.25303    0.85357    -0.03712   1.00
H2       0.23942    0.64628    -0.08300   1.00
H2       0.25569    0.66599    -0.12895   1.00
H2       0.22626    0.62032    -0.19055   1.00
H2       0.25224    0.88648    0.05750   1.00
H2       0.24537    0.91345    0.01234   1.00
C2       0.25253    0.75043    0.10395   1.00
C3       0.22105    0.76801    0.08403   1.00
O2       0.19642    0.79340    0.10326   1.00
C3       0.28167    0.73138    0.08174   1.00
H1       0.30561    0.71678    0.09615   1.00
C3a      0.21988    0.76708    0.04287   1.00
H1       0.19677    0.78257    0.02798   1.00
C3b      0.28108    0.73159    0.04078   1.00
C4       0.25008    0.74959    0.02100   1.00
O_3      0.29088    0.80806    -0.02167   1.00
C5       0.16111    0.77451    0.11280   1.00
H2       0.14591    0.76366    0.08609   1.00
C5       0.13530    0.80462    0.13334   1.00
H2       0.16637    0.74935    0.13274   1.00
H2       0.12170    0.82363    0.11077   1.00
H2       0.15479    0.82372    0.15101   1.00
C5       0.10370    0.78586    0.15931   1.00
H2       0.08650    0.76459    0.14189   1.00
H2       0.08354    0.80845    0.17109   1.00
H2       0.11687    0.77075    0.18506   1.00
C5       0.29198    0.86953    0.00980   1.00
H2       0.31111    0.88392    -0.01218   1.00
H2       0.31150    0.85373    0.03045   1.00
C5       0.26739    0.89990    0.03197   1.00
H2       0.28655    0.92346    0.04334   1.00
C5       0.70130    0.36730    0.63227   1.00
H2       0.68031    0.34791    0.64755   1.00
H2       0.68375    0.38434    0.61099   1.00
C5       0.72087    0.39489    0.66219   1.00
H2       0.70161    0.42017    0.66890   1.00
H2       0.74907    0.40589    0.65040   1.00
O_3      0.80975    0.28790    0.48000   1.00
C4       0.74971    0.24966    0.52100   1.00
C3c      0.73047    0.27881    0.54243   1.00
H1       0.71514    0.30182    0.52725   1.00
C3d      0.76904    0.21962    0.54135   1.00
C3       0.73111    0.27911    0.58354   1.00
O2       0.70774    0.30572    0.60248   1.00
C3       0.77036    0.22026    0.58227   1.00
H1       0.78671    0.19739    0.59657   1.00
C2       0.75142    0.24975    0.60439   1.00
C5       0.84461    0.26597    0.47879   1.00
H2       0.85521    0.26141    0.44838   1.00
H2       0.84059    0.23679    0.49266   1.00
C5       0.87547    0.28857    0.50122   1.00
H2       0.86441    0.29409    0.53129   1.00
H2       0.87950    0.31750    0.48691   1.00
C5       0.91412    0.26604    0.50254   1.00
H2       0.92519    0.26019    0.47260   1.00
H2       0.91042    0.23774    0.51803   1.00
H2       0.93655    0.28339    0.51830   1.00
C5       0.76663    0.16041    0.51105   1.00
C5       0.72927    0.33994    0.61070   1.00
H2       0.74307    0.16996    0.49088   1.00
H2       0.75303    0.14643    0.53712   1.00
H2       0.73942    0.35372    0.58300   1.00
H2       0.75569    0.33401    0.62895   1.00
H2       0.72626    0.37968    0.69055   1.00
H2       0.75224    0.11352    0.44250   1.00
H2       0.74537    0.08655    0.48766   1.00
C2       0.75253    0.24957    0.39605   1.00
C3       0.72105    0.23199    0.41597   1.00
O2       0.69642    0.20660    0.39674   1.00
C3       0.78167    0.26862    0.41826   1.00
H1       0.80561    0.28322    0.40385   1.00
C3a      0.71988    0.23292    0.45713   1.00
H1       0.69677    0.21743    0.47202   1.00
C3b      0.78108    0.26841    0.45922   1.00
C4       0.75008    0.25041    0.47900   1.00
O_3      0.79088    0.19194    0.52167   1.00
C5       0.66111    0.22549    0.38720   1.00
H2       0.64591    0.23634    0.41391   1.00
C5       0.63530    0.19538    0.36666   1.00
H2       0.66637    0.25065    0.36726   1.00
H2       0.62170    0.17637    0.38923   1.00
H2       0.65479    0.17628    0.34899   1.00
C5       0.60370    0.21414    0.34069   1.00
H2       0.58650    0.23541    0.35811   1.00
H2       0.58354    0.19155    0.32891   1.00
H2       0.61687    0.22925    0.31494   1.00
C5       0.79198    0.13047    0.49020   1.00
H2       0.81111    0.11608    0.51218   1.00
H2       0.81150    0.14627    0.46955   1.00
C5       0.76739    0.10010    0.46803   1.00
H2       0.78655    0.07654    0.45666   1.00
C5       0.86730    0.63227    0.20130   1.00
H2       0.84791    0.64755    0.18031   1.00
H2       0.88434    0.61099    0.18375   1.00
C5       0.89489    0.66219    0.22087   1.00
H2       0.92017    0.66890    0.20161   1.00
H2       0.90589    0.65040    0.24907   1.00
O_3      0.78790    0.48000    0.30975   1.00
C4       0.74966    0.52100    0.24971   1.00
C3c      0.77881    0.54243    0.23047   1.00
H1       0.80182    0.52725    0.21514   1.00
C3d      0.71962    0.54135    0.26904   1.00
C3       0.77911    0.58354    0.23111   1.00
O2       0.80572    0.60248    0.20774   1.00
C3       0.72026    0.58227    0.27036   1.00
H1       0.69739    0.59657    0.28671   1.00
C2       0.74975    0.60439    0.25142   1.00
C5       0.76597    0.47879    0.34461   1.00
H2       0.76141    0.44838    0.35521   1.00
H2       0.73679    0.49266    0.34059   1.00
C5       0.78857    0.50122    0.37547   1.00
H2       0.79409    0.53129    0.36441   1.00
H2       0.81750    0.48691    0.37950   1.00
C5       0.76604    0.50254    0.41412   1.00
H2       0.76019    0.47260    0.42519   1.00
H2       0.73774    0.51803    0.41042   1.00
H2       0.78339    0.51830    0.43655   1.00
C5       0.66041    0.51105    0.26663   1.00
C5       0.83994    0.61070    0.22927   1.00
H2       0.66996    0.49088    0.24307   1.00
H2       0.64643    0.53712    0.25303   1.00
H2       0.85372    0.58300    0.23942   1.00
H2       0.83401    0.62895    0.25569   1.00
H2       0.87968    0.69055    0.22626   1.00
H2       0.61352    0.44250    0.25224   1.00
H2       0.58655    0.48766    0.24537   1.00
C2       0.74957    0.39605    0.25253   1.00
C3       0.73199    0.41597    0.22105   1.00
O2       0.70660    0.39674    0.19642   1.00
C3       0.76862    0.41826    0.28167   1.00
H1       0.78322    0.40385    0.30561   1.00
C3a      0.73292    0.45713    0.21988   1.00
H1       0.71743    0.47202    0.19677   1.00
C3b      0.76841    0.45922    0.28108   1.00
C4       0.75041    0.47900    0.25008   1.00
O_3      0.69194    0.52167    0.29088   1.00
C5       0.72549    0.38720    0.16111   1.00
H2       0.73634    0.41391    0.14591   1.00
C5       0.69538    0.36666    0.13530   1.00
H2       0.75065    0.36726    0.16637   1.00
H2       0.67637    0.38923    0.12170   1.00
H2       0.67628    0.34899    0.15479   1.00
C5       0.71414    0.34069    0.10370   1.00
H2       0.73541    0.35811    0.08650   1.00
H2       0.69155    0.32891    0.08354   1.00
H2       0.72925    0.31494    0.11687   1.00
C5       0.63047    0.49020    0.29198   1.00
H2       0.61608    0.51218    0.31111   1.00
H2       0.64627    0.46955    0.31150   1.00
C5       0.60010    0.46803    0.26739   1.00
H2       0.57654    0.45666    0.28655   1.00
C5       0.36773    0.20130    0.13270   1.00
H2       0.35245    0.18031    0.15209   1.00
H2       0.38901    0.18375    0.11566   1.00
C5       0.33781    0.22087    0.10511   1.00
H2       0.33110    0.20161    0.07983   1.00
H2       0.34960    0.24907    0.09411   1.00
O_3      0.52000    0.30975    0.21210   1.00
C4       0.47900    0.24971    0.25034   1.00
C3c      0.45757    0.23047    0.22119   1.00
H1       0.47275    0.21514    0.19818   1.00
C3d      0.45865    0.26904    0.28038   1.00
C3       0.41646    0.23111    0.22089   1.00
O2       0.39752    0.20774    0.19428   1.00
C3       0.41773    0.27036    0.27974   1.00
H1       0.40343    0.28671    0.30261   1.00
C2       0.39561    0.25142    0.25025   1.00
C5       0.52121    0.34461    0.23403   1.00
H2       0.55162    0.35521    0.23859   1.00
H2       0.50734    0.34059    0.26321   1.00
C5       0.49878    0.37547    0.21143   1.00
H2       0.46871    0.36441    0.20591   1.00
H2       0.51309    0.37950    0.18250   1.00
C5       0.49746    0.41412    0.23396   1.00
H2       0.52740    0.42519    0.23981   1.00
H2       0.48197    0.41042    0.26226   1.00
H2       0.48170    0.43655    0.21661   1.00
C5       0.48895    0.26663    0.33959   1.00
C5       0.38930    0.22927    0.16006   1.00
H2       0.50912    0.24307    0.33004   1.00
H2       0.46288    0.25303    0.35357   1.00
H2       0.41700    0.23942    0.14628   1.00
H2       0.37105    0.25569    0.16599   1.00
H2       0.30945    0.22626    0.12032   1.00
H2       0.55750    0.25224    0.38648   1.00
H2       0.51234    0.24537    0.41345   1.00
C2       0.60395    0.25253    0.25043   1.00
C3       0.58403    0.22105    0.26801   1.00
O2       0.60326    0.19642    0.29340   1.00
C3       0.58174    0.28167    0.23138   1.00
H1       0.59615    0.30561    0.21678   1.00
C3a      0.54287    0.21988    0.26708   1.00
H1       0.52798    0.19677    0.28257   1.00
C3b      0.54078    0.28108    0.23159   1.00
C4       0.52100    0.25008    0.24959   1.00
O_3      0.47833    0.29088    0.30806   1.00
C5       0.61280    0.16111    0.27451   1.00
H2       0.58609    0.14591    0.26366   1.00
C5       0.63334    0.13530    0.30462   1.00
H2       0.63274    0.16637    0.24935   1.00
H2       0.61077    0.12170    0.32363   1.00
H2       0.65101    0.15479    0.32372   1.00
C5       0.65931    0.10370    0.28586   1.00
H2       0.64189    0.08650    0.26459   1.00
H2       0.67109    0.08354    0.30845   1.00
H2       0.68506    0.11687    0.27075   1.00
C5       0.50980    0.29198    0.36953   1.00
H2       0.48782    0.31111    0.38392   1.00
H2       0.53045    0.31150    0.35373   1.00
C5       0.53197    0.26739    0.39990   1.00
H2       0.54334    0.28655    0.42346   1.00
C5       1.13227    0.20130    0.36730   1.00
H2       1.14755    0.18031    0.34791   1.00
H2       1.11099    0.18375    0.38434   1.00
C5       1.16219    0.22087    0.39489   1.00
H2       1.16890    0.20161    0.42017   1.00
H2       1.15040    0.24907    0.40589   1.00
O_3      0.98000    0.30975    0.28790   1.00
C4       1.02100    0.24971    0.24966   1.00
C3c      1.04243    0.23047    0.27881   1.00
H1       1.02725    0.21514    0.30182   1.00
C3d      1.04135    0.26904    0.21962   1.00
C3       1.08354    0.23111    0.27911   1.00
O2       1.10248    0.20774    0.30572   1.00
C3       1.08227    0.27036    0.22026   1.00
H1       1.09657    0.28671    0.19739   1.00
C2       1.10439    0.25142    0.24975   1.00
C5       0.97879    0.34461    0.26597   1.00
H2       0.94838    0.35521    0.26141   1.00
H2       0.99266    0.34059    0.23679   1.00
C5       1.00122    0.37547    0.28857   1.00
H2       1.03129    0.36441    0.29409   1.00
H2       0.98691    0.37950    0.31750   1.00
C5       1.00254    0.41412    0.26604   1.00
H2       0.97260    0.42519    0.26019   1.00
H2       1.01803    0.41042    0.23774   1.00
H2       1.01830    0.43655    0.28339   1.00
C5       1.01105    0.26663    0.16041   1.00
C5       1.11070    0.22927    0.33994   1.00
H2       0.99088    0.24307    0.16996   1.00
H2       1.03712    0.25303    0.14643   1.00
H2       1.08300    0.23942    0.35372   1.00
H2       1.12895    0.25569    0.33401   1.00
H2       1.19055    0.22626    0.37968   1.00
H2       0.94250    0.25224    0.11352   1.00
H2       0.98766    0.24537    0.08655   1.00
C2       0.89605    0.25253    0.24957   1.00
C3       0.91597    0.22105    0.23199   1.00
O2       0.89674    0.19642    0.20660   1.00
C3       0.91826    0.28167    0.26862   1.00
H1       0.90385    0.30561    0.28322   1.00
C3a      0.95713    0.21988    0.23292   1.00
H1       0.97202    0.19677    0.21743   1.00
C3b      0.95922    0.28108    0.26841   1.00
C4       0.97900    0.25008    0.25041   1.00
O_3      1.02167    0.29088    0.19194   1.00
C5       0.88720    0.16111    0.22549   1.00
H2       0.91391    0.14591    0.23634   1.00
C5       0.86666    0.13530    0.19538   1.00
H2       0.86726    0.16637    0.25065   1.00
H2       0.88923    0.12170    0.17637   1.00
H2       0.84899    0.15479    0.17628   1.00
C5       0.84069    0.10370    0.21414   1.00
H2       0.85811    0.08650    0.23541   1.00
H2       0.82891    0.08354    0.19155   1.00
H2       0.81494    0.11687    0.22925   1.00
C5       0.99020    0.29198    0.13047   1.00
H2       1.01218    0.31111    0.11608   1.00
H2       0.96955    0.31150    0.14627   1.00
C5       0.96803    0.26739    0.10010   1.00
H2       0.95666    0.28655    0.07654   1.00
C5       0.63270    -0.13227   0.20130   1.00
H2       0.65209    -0.14755   0.18031   1.00
H2       0.61566    -0.11099   0.18375   1.00
C5       0.60511    -0.16219   0.22087   1.00
H2       0.57983    -0.16890   0.20161   1.00
H2       0.59411    -0.15040   0.24907   1.00
O_3      0.71210    0.02000    0.30975   1.00
C4       0.75034    -0.02100   0.24971   1.00
C3c      0.72119    -0.04243   0.23047   1.00
H1       0.69818    -0.02725   0.21514   1.00
C3d      0.78038    -0.04135   0.26904   1.00
C3       0.72089    -0.08354   0.23111   1.00
O2       0.69428    -0.10248   0.20774   1.00
C3       0.77974    -0.08227   0.27036   1.00
H1       0.80261    -0.09657   0.28671   1.00
C2       0.75025    -0.10439   0.25142   1.00
C5       0.73403    0.02121    0.34461   1.00
H2       0.73859    0.05162    0.35521   1.00
H2       0.76321    0.00734    0.34059   1.00
C5       0.71143    -0.00122   0.37547   1.00
H2       0.70591    -0.03129   0.36441   1.00
H2       0.68250    0.01309    0.37950   1.00
C5       0.73396    -0.00254   0.41412   1.00
H2       0.73981    0.02740    0.42519   1.00
H2       0.76226    -0.01803   0.41042   1.00
H2       0.71661    -0.01830   0.43655   1.00
C5       0.83959    -0.01105   0.26663   1.00
C5       0.66006    -0.11070   0.22927   1.00
H2       0.83004    0.00912    0.24307   1.00
H2       0.85357    -0.03712   0.25303   1.00
H2       0.64628    -0.08300   0.23942   1.00
H2       0.66599    -0.12895   0.25569   1.00
H2       0.62032    -0.19055   0.22626   1.00
H2       0.88648    0.05750    0.25224   1.00
H2       0.91345    0.01234    0.24537   1.00
C2       0.75043    0.10395    0.25253   1.00
C3       0.76801    0.08403    0.22105   1.00
O2       0.79340    0.10326    0.19642   1.00
C3       0.73138    0.08174    0.28167   1.00
H1       0.71678    0.09615    0.30561   1.00
C3a      0.76708    0.04287    0.21988   1.00
H1       0.78257    0.02798    0.19677   1.00
C3b      0.73159    0.04078    0.28108   1.00
C4       0.74959    0.02100    0.25008   1.00
O_3      0.80806    -0.02167   0.29088   1.00
C5       0.77451    0.11280    0.16111   1.00
H2       0.76366    0.08609    0.14591   1.00
C5       0.80462    0.13334    0.13530   1.00
H2       0.74935    0.13274    0.16637   1.00
H2       0.82363    0.11077    0.12170   1.00
H2       0.82372    0.15101    0.15479   1.00
C5       0.78586    0.15931    0.10370   1.00
H2       0.76459    0.14189    0.08650   1.00
H2       0.80845    0.17109    0.08354   1.00
H2       0.77075    0.18506    0.11687   1.00
C5       0.86953    0.00980    0.29198   1.00
H2       0.88392    -0.01218   0.31111   1.00
H2       0.85373    0.03045    0.31150   1.00
C5       0.89990    0.03197    0.26739   1.00
H2       0.92346    0.04334    0.28655   1.00
C5       0.70130    0.13270    -0.13227   1.00
H2       0.68031    0.15209    -0.14755   1.00
H2       0.68375    0.11566    -0.11099   1.00
C5       0.72087    0.10511    -0.16219   1.00
H2       0.70161    0.07983    -0.16890   1.00
H2       0.74907    0.09411    -0.15040   1.00
O_3      0.80975    0.21210    0.02000   1.00
C4       0.74971    0.25034    -0.02100   1.00
C3c      0.73047    0.22119    -0.04243   1.00
H1       0.71514    0.19818    -0.02725   1.00
C3d      0.76904    0.28038    -0.04135   1.00
C3       0.73111    0.22089    -0.08354   1.00
O2       0.70774    0.19428    -0.10248   1.00
C3       0.77036    0.27974    -0.08227   1.00
H1       0.78671    0.30261    -0.09657   1.00
C2       0.75142    0.25025    -0.10439   1.00
C5       0.84461    0.23403    0.02121   1.00
H2       0.85521    0.23859    0.05162   1.00
H2       0.84059    0.26321    0.00734   1.00
C5       0.87547    0.21143    -0.00122   1.00
H2       0.86441    0.20591    -0.03129   1.00
H2       0.87950    0.18250    0.01309   1.00
C5       0.91412    0.23396    -0.00254   1.00
H2       0.92519    0.23981    0.02740   1.00
H2       0.91042    0.26226    -0.01803   1.00
H2       0.93655    0.21661    -0.01830   1.00
C5       0.76663    0.33959    -0.01105   1.00
C5       0.72927    0.16006    -0.11070   1.00
H2       0.74307    0.33004    0.00912   1.00
H2       0.75303    0.35357    -0.03712   1.00
H2       0.73942    0.14628    -0.08300   1.00
H2       0.75569    0.16599    -0.12895   1.00
H2       0.72626    0.12032    -0.19055   1.00
H2       0.75224    0.38648    0.05750   1.00
H2       0.74537    0.41345    0.01234   1.00
C2       0.75253    0.25043    0.10395   1.00
C3       0.72105    0.26801    0.08403   1.00
O2       0.69642    0.29340    0.10326   1.00
C3       0.78167    0.23138    0.08174   1.00
H1       0.80561    0.21678    0.09615   1.00
C3a      0.71988    0.26708    0.04287   1.00
H1       0.69677    0.28257    0.02798   1.00
C3b      0.78108    0.23159    0.04078   1.00
C4       0.75008    0.24959    0.02100   1.00
O_3      0.79088    0.30806    -0.02167   1.00
C5       0.66111    0.27451    0.11280   1.00
H2       0.64591    0.26366    0.08609   1.00
C5       0.63530    0.30462    0.13334   1.00
H2       0.66637    0.24935    0.13274   1.00
H2       0.62170    0.32363    0.11077   1.00
H2       0.65479    0.32372    0.15101   1.00
C5       0.60370    0.28586    0.15931   1.00
H2       0.58650    0.26459    0.14189   1.00
H2       0.58354    0.30845    0.17109   1.00
H2       0.61687    0.27075    0.18506   1.00
C5       0.79198    0.36953    0.00980   1.00
H2       0.81111    0.38392    -0.01218   1.00
H2       0.81150    0.35373    0.03045   1.00
C5       0.76739    0.39990    0.03197   1.00
H2       0.78655    0.42346    0.04334   1.00
