data_IRMOF10_SG202_Ligand3_label_f.

_audit_creation_method             'generated by an auxiliary program of Tobunporous'

_symmetry_space_group_name_H-M     'P 1'
_symmetry_Int_Tables_number        1
_symmetry_cell_setting             triclinic

_cell_length_a                    34.2800
_cell_length_b                    34.2800
_cell_length_c                    34.2800
_cell_angle_alpha                 90.0000
_cell_angle_beta                  90.0000
_cell_angle_gamma                 90.0000

loop_
_atom_site_label
_atom_site_fract_x
_atom_site_fract_y
_atom_site_fract_z
_atom_site_occupancy
O1       0.75000    0.75000    0.75000   1.00
Zn1      0.71720    0.78280    0.78280   1.00
Zn1      0.78280    0.71720    0.78280   1.00
Zn1      0.78280    0.78280    0.71720   1.00
Zn1      0.71720    0.71720    0.71720   1.00
O2       0.72650    0.77350    0.83820   1.00
O2       0.72650    0.83820    0.77350   1.00
O2       0.66180    0.77350    0.77350   1.00
O2       0.77350    0.72650    0.83820   1.00
O2       0.83820    0.72650    0.77350   1.00
O2       0.77350    0.66180    0.77350   1.00
O2       0.77350    0.83820    0.72650   1.00
O2       0.83820    0.77350    0.72650   1.00
O2       0.77350    0.77350    0.66180   1.00
O2       0.66180    0.72650    0.72650   1.00
O2       0.72650    0.66180    0.72650   1.00
O2       0.72650    0.72650    0.66180   1.00
C1       0.75000    0.75000    0.85520   1.00
C1       0.75000    0.85520    0.75000   1.00
C1       0.64480    0.75000    0.75000   1.00
C1       0.85520    0.75000    0.75000   1.00
C1       0.75000    0.64480    0.75000   1.00
C1       0.75000    0.75000    0.64480   1.00
O1       0.25000    0.25000    0.75000   1.00
Zn1      0.21720    0.28280    0.78280   1.00
Zn1      0.28280    0.21720    0.78280   1.00
Zn1      0.28280    0.28280    0.71720   1.00
Zn1      0.21720    0.21720    0.71720   1.00
O2       0.22650    0.27350    0.83820   1.00
O2       0.22650    0.33820    0.77350   1.00
O2       0.16180    0.27350    0.77350   1.00
O2       0.27350    0.22650    0.83820   1.00
O2       0.33820    0.22650    0.77350   1.00
O2       0.27350    0.16180    0.77350   1.00
O2       0.27350    0.33820    0.72650   1.00
O2       0.33820    0.27350    0.72650   1.00
O2       0.27350    0.27350    0.66180   1.00
O2       0.16180    0.22650    0.72650   1.00
O2       0.22650    0.16180    0.72650   1.00
O2       0.22650    0.22650    0.66180   1.00
C1       0.25000    0.25000    0.85520   1.00
C1       0.25000    0.35520    0.75000   1.00
C1       0.14480    0.25000    0.75000   1.00
C1       0.35520    0.25000    0.75000   1.00
C1       0.25000    0.14480    0.75000   1.00
C1       0.25000    0.25000    0.64480   1.00
O1       0.25000    0.75000    0.25000   1.00
Zn1      0.21720    0.78280    0.28280   1.00
Zn1      0.28280    0.71720    0.28280   1.00
Zn1      0.28280    0.78280    0.21720   1.00
Zn1      0.21720    0.71720    0.21720   1.00
O2       0.22650    0.77350    0.33820   1.00
O2       0.22650    0.83820    0.27350   1.00
O2       0.16180    0.77350    0.27350   1.00
O2       0.27350    0.72650    0.33820   1.00
O2       0.33820    0.72650    0.27350   1.00
O2       0.27350    0.66180    0.27350   1.00
O2       0.27350    0.83820    0.22650   1.00
O2       0.33820    0.77350    0.22650   1.00
O2       0.27350    0.77350    0.16180   1.00
O2       0.16180    0.72650    0.22650   1.00
O2       0.22650    0.66180    0.22650   1.00
O2       0.22650    0.72650    0.16180   1.00
C1       0.25000    0.75000    0.35520   1.00
C1       0.25000    0.85520    0.25000   1.00
C1       0.14480    0.75000    0.25000   1.00
C1       0.35520    0.75000    0.25000   1.00
C1       0.25000    0.64480    0.25000   1.00
C1       0.25000    0.75000    0.14480   1.00
O1       0.75000    0.25000    0.25000   1.00
Zn1      0.71720    0.28280    0.28280   1.00
Zn1      0.78280    0.21720    0.28280   1.00
Zn1      0.78280    0.28280    0.21720   1.00
Zn1      0.71720    0.21720    0.21720   1.00
O2       0.72650    0.27350    0.33820   1.00
O2       0.72650    0.33820    0.27350   1.00
O2       0.66180    0.27350    0.27350   1.00
O2       0.77350    0.22650    0.33820   1.00
O2       0.83820    0.22650    0.27350   1.00
O2       0.77350    0.16180    0.27350   1.00
O2       0.77350    0.33820    0.22650   1.00
O2       0.83820    0.27350    0.22650   1.00
O2       0.77350    0.27350    0.16180   1.00
O2       0.66180    0.22650    0.22650   1.00
O2       0.72650    0.16180    0.22650   1.00
O2       0.72650    0.22650    0.16180   1.00
C1       0.75000    0.25000    0.35520   1.00
C1       0.75000    0.35520    0.25000   1.00
C1       0.64480    0.25000    0.25000   1.00
C1       0.85520    0.25000    0.25000   1.00
C1       0.75000    0.14480    0.25000   1.00
C1       0.75000    0.25000    0.14480   1.00
O1       0.25000    0.25000    0.25000   1.00
Zn1      0.28280    0.21720    0.21720   1.00
Zn1      0.21720    0.28280    0.21720   1.00
Zn1      0.21720    0.21720    0.28280   1.00
Zn1      0.28280    0.28280    0.28280   1.00
O2       0.27350    0.22650    0.16180   1.00
O2       0.27350    0.16180    0.22650   1.00
O2       0.33820    0.22650    0.22650   1.00
O2       0.22650    0.27350    0.16180   1.00
O2       0.16180    0.27350    0.22650   1.00
O2       0.22650    0.33820    0.22650   1.00
O2       0.22650    0.16180    0.27350   1.00
O2       0.16180    0.22650    0.27350   1.00
O2       0.22650    0.22650    0.33820   1.00
O2       0.33820    0.27350    0.27350   1.00
O2       0.27350    0.33820    0.27350   1.00
O2       0.27350    0.27350    0.33820   1.00
C1       0.25000    0.25000    0.14480   1.00
C1       0.25000    0.14480    0.25000   1.00
C1       0.35520    0.25000    0.25000   1.00
C1       0.14480    0.25000    0.25000   1.00
C1       0.25000    0.35520    0.25000   1.00
C1       0.25000    0.25000    0.35520   1.00
O1       0.75000    0.75000    0.25000   1.00
Zn1      0.78280    0.71720    0.21720   1.00
Zn1      0.71720    0.78280    0.21720   1.00
Zn1      0.71720    0.71720    0.28280   1.00
Zn1      0.78280    0.78280    0.28280   1.00
O2       0.77350    0.72650    0.16180   1.00
O2       0.77350    0.66180    0.22650   1.00
O2       0.83820    0.72650    0.22650   1.00
O2       0.72650    0.77350    0.16180   1.00
O2       0.66180    0.77350    0.22650   1.00
O2       0.72650    0.83820    0.22650   1.00
O2       0.72650    0.66180    0.27350   1.00
O2       0.66180    0.72650    0.27350   1.00
O2       0.72650    0.72650    0.33820   1.00
O2       0.83820    0.77350    0.27350   1.00
O2       0.77350    0.83820    0.27350   1.00
O2       0.77350    0.77350    0.33820   1.00
C1       0.75000    0.75000    0.14480   1.00
C1       0.75000    0.64480    0.25000   1.00
C1       0.85520    0.75000    0.25000   1.00
C1       0.64480    0.75000    0.25000   1.00
C1       0.75000    0.85520    0.25000   1.00
C1       0.75000    0.75000    0.35520   1.00
O1       0.75000    0.25000    0.75000   1.00
Zn1      0.78280    0.21720    0.71720   1.00
Zn1      0.71720    0.28280    0.71720   1.00
Zn1      0.71720    0.21720    0.78280   1.00
Zn1      0.78280    0.28280    0.78280   1.00
O2       0.77350    0.22650    0.66180   1.00
O2       0.77350    0.16180    0.72650   1.00
O2       0.83820    0.22650    0.72650   1.00
O2       0.72650    0.27350    0.66180   1.00
O2       0.66180    0.27350    0.72650   1.00
O2       0.72650    0.33820    0.72650   1.00
O2       0.72650    0.16180    0.77350   1.00
O2       0.66180    0.22650    0.77350   1.00
O2       0.72650    0.22650    0.83820   1.00
O2       0.83820    0.27350    0.77350   1.00
O2       0.77350    0.33820    0.77350   1.00
O2       0.77350    0.27350    0.83820   1.00
C1       0.75000    0.25000    0.64480   1.00
C1       0.75000    0.14480    0.75000   1.00
C1       0.85520    0.25000    0.75000   1.00
C1       0.64480    0.25000    0.75000   1.00
C1       0.75000    0.35520    0.75000   1.00
C1       0.75000    0.25000    0.85520   1.00
O1       0.25000    0.75000    0.75000   1.00
Zn1      0.28280    0.71720    0.71720   1.00
Zn1      0.21720    0.78280    0.71720   1.00
Zn1      0.21720    0.71720    0.78280   1.00
Zn1      0.28280    0.78280    0.78280   1.00
O2       0.27350    0.72650    0.66180   1.00
O2       0.27350    0.66180    0.72650   1.00
O2       0.33820    0.72650    0.72650   1.00
O2       0.22650    0.77350    0.66180   1.00
O2       0.16180    0.77350    0.72650   1.00
O2       0.22650    0.83820    0.72650   1.00
O2       0.22650    0.66180    0.77350   1.00
O2       0.16180    0.72650    0.77350   1.00
O2       0.22650    0.72650    0.83820   1.00
O2       0.33820    0.77350    0.77350   1.00
O2       0.27350    0.83820    0.77350   1.00
O2       0.27350    0.77350    0.83820   1.00
C1       0.25000    0.75000    0.64480   1.00
C1       0.25000    0.64480    0.75000   1.00
C1       0.35520    0.75000    0.75000   1.00
C1       0.14480    0.75000    0.75000   1.00
C1       0.25000    0.85520    0.75000   1.00
C1       0.25000    0.75000    0.85520   1.00
C4       0.75302    0.75040    1.02084   1.00
C4       0.75259    0.74981    0.97912   1.00
C3       0.78442    0.73589    1.04364   1.00
C3       0.78182    0.73150    0.95616   1.00
C3       0.72009    0.76575    1.04123   1.00
C3       0.72140    0.76857    0.95886   1.00
C2       0.75083    0.75087    1.10512   1.00
C2       0.74917    0.74913    0.89488   1.00
C3       0.78329    0.73590    1.08462   1.00
C3       0.78038    0.73147    0.91519   1.00
C3       0.71983    0.76617    1.08258   1.00
C3       0.71961    0.76676    0.91762   1.00
H1       0.80910    0.72501    1.03115   1.00
H1       0.80490    0.71743    0.96852   1.00
C5       0.68773    0.78074    1.02020   1.00
C5       0.69197    0.78872    0.97980   1.00
H1       0.80675    0.72476    1.09955   1.00
H1       0.80251    0.71806    0.90010   1.00
H1       0.69649    0.77826    1.09680   1.00
H1       0.69582    0.77816    0.90368   1.00
O3       0.65360    0.78942    1.03961   1.00
O3       0.66615    0.81335    0.96099   1.00
Si1      0.61900    0.75678    1.04247   1.00
Si1      0.67918    0.85841    0.95279   1.00
C6       0.58877    0.78241    1.07538   1.00
C6       0.59724    0.75331    0.99598   1.00
C6       0.63480    0.71204    1.06253   1.00
C6       0.72658    0.87309    0.96693   1.00
C6       0.67440    0.86283    0.90198   1.00
C6       0.64393    0.88868    0.97477   1.00
C6       0.60968    0.80028    1.11194   1.00
H2       0.57950    0.80741    1.05791   1.00
C6       0.55017    0.76369    1.09147   1.00
H2       0.60361    0.78193    0.98358   1.00
C6       0.61408    0.72294    0.96634   1.00
C6       0.55188    0.74863    0.99336   1.00
H2       0.65098    0.72158    1.08831   1.00
C6       0.60259    0.68335    1.07772   1.00
C6       0.66323    0.68524    1.03849   1.00
C6       0.73844    0.86808    1.01071   1.00
C6       0.76264    0.85967    0.94225   1.00
H2       0.72559    0.90456    0.96212   1.00
H2       0.69811    0.84494    0.89051   1.00
C6       0.63623    0.84550    0.88378   1.00
C6       0.67972    0.90441    0.88393   1.00
H2       0.61999    0.88919    0.95375   1.00
C6       0.62537    0.87332    1.01336   1.00
C6       0.65487    0.93239    0.98244   1.00
H2       0.63379    0.81933    1.10346   1.00
H2       0.62135    0.77744    1.13090   1.00
H2       0.58960    0.81810    1.12917   1.00
H2       0.52815    0.78632    1.09608   1.00
H2       0.53771    0.74217    1.07178   1.00
H2       0.55449    0.74942    1.11964   1.00
H2       0.60402    0.72929    0.93672   1.00
H2       0.64580    0.72357    0.96532   1.00
H2       0.60466    0.69337    0.97352   1.00
H2       0.53685    0.77220    1.00862   1.00
H2       0.54182    0.74984    0.96308   1.00
H2       0.54247    0.72070    1.00550   1.00
H2       0.58089    0.67742    1.05514   1.00
H2       0.61485    0.65539    1.08708   1.00
H2       0.58794    0.69496    1.10332   1.00
H2       0.64752    0.66553    1.01902   1.00
H2       0.68375    0.70138    1.02068   1.00
H2       0.68049    0.66709    1.05828   1.00
H2       0.74848    0.83856    1.01688   1.00
H2       0.76242    0.88780    1.01809   1.00
H2       0.71451    0.87477    1.03048   1.00
H2       0.78891    0.87543    0.95125   1.00
H2       0.76880    0.82873    0.94574   1.00
H2       0.75886    0.86566    0.91122   1.00
H2       0.63890    0.84360    0.85202   1.00
H2       0.63068    0.81593    0.89435   1.00
H2       0.61070    0.86335    0.89035   1.00
H2       0.70644    0.91838    0.89416   1.00
H2       0.68179    0.90255    0.85212   1.00
H2       0.65504    0.92335    0.89085   1.00
H2       0.64689    0.87006    1.03656   1.00
H2       0.60226    0.89263    1.02381   1.00
H2       0.61216    0.84497    1.00834   1.00
H2       0.62901    0.94931    0.99044   1.00
H2       0.67593    0.93513    1.00622   1.00
H2       0.66720    0.94618    0.95657   1.00
C4       0.75040    1.02084    0.75302   1.00
C4       0.74981    0.97912    0.75259   1.00
C3       0.73589    1.04364    0.78442   1.00
C3       0.73150    0.95616    0.78182   1.00
C3       0.76575    1.04123    0.72009   1.00
C3       0.76857    0.95886    0.72140   1.00
C2       0.75087    1.10512    0.75083   1.00
C2       0.74913    0.89488    0.74917   1.00
C3       0.73590    1.08462    0.78329   1.00
C3       0.73147    0.91519    0.78038   1.00
C3       0.76617    1.08258    0.71983   1.00
C3       0.76676    0.91762    0.71961   1.00
H1       0.72501    1.03115    0.80910   1.00
H1       0.71743    0.96852    0.80490   1.00
C5       0.78074    1.02020    0.68773   1.00
C5       0.78872    0.97980    0.69197   1.00
H1       0.72476    1.09955    0.80675   1.00
H1       0.71806    0.90010    0.80251   1.00
H1       0.77826    1.09680    0.69649   1.00
H1       0.77816    0.90368    0.69582   1.00
O3       0.78942    1.03961    0.65360   1.00
O3       0.81335    0.96099    0.66615   1.00
Si1      0.75678    1.04247    0.61900   1.00
Si1      0.85841    0.95279    0.67918   1.00
C6       0.78241    1.07538    0.58877   1.00
C6       0.75331    0.99598    0.59724   1.00
C6       0.71204    1.06253    0.63480   1.00
C6       0.87309    0.96693    0.72658   1.00
C6       0.86283    0.90198    0.67440   1.00
C6       0.88868    0.97477    0.64393   1.00
C6       0.80028    1.11194    0.60968   1.00
H2       0.80741    1.05791    0.57950   1.00
C6       0.76369    1.09147    0.55017   1.00
H2       0.78193    0.98358    0.60361   1.00
C6       0.72294    0.96634    0.61408   1.00
C6       0.74863    0.99336    0.55188   1.00
H2       0.72158    1.08831    0.65098   1.00
C6       0.68335    1.07772    0.60259   1.00
C6       0.68524    1.03849    0.66323   1.00
C6       0.86808    1.01071    0.73844   1.00
C6       0.85967    0.94225    0.76264   1.00
H2       0.90456    0.96212    0.72559   1.00
H2       0.84494    0.89051    0.69811   1.00
C6       0.84550    0.88378    0.63623   1.00
C6       0.90441    0.88393    0.67972   1.00
H2       0.88919    0.95375    0.61999   1.00
C6       0.87332    1.01336    0.62537   1.00
C6       0.93239    0.98244    0.65487   1.00
H2       0.81933    1.10346    0.63379   1.00
H2       0.77744    1.13090    0.62135   1.00
H2       0.81810    1.12917    0.58960   1.00
H2       0.78632    1.09608    0.52815   1.00
H2       0.74217    1.07178    0.53771   1.00
H2       0.74942    1.11964    0.55449   1.00
H2       0.72929    0.93672    0.60402   1.00
H2       0.72357    0.96532    0.64580   1.00
H2       0.69337    0.97352    0.60466   1.00
H2       0.77220    1.00862    0.53685   1.00
H2       0.74984    0.96308    0.54182   1.00
H2       0.72070    1.00550    0.54247   1.00
H2       0.67742    1.05514    0.58089   1.00
H2       0.65539    1.08708    0.61485   1.00
H2       0.69496    1.10332    0.58794   1.00
H2       0.66553    1.01902    0.64752   1.00
H2       0.70138    1.02068    0.68375   1.00
H2       0.66709    1.05828    0.68049   1.00
H2       0.83856    1.01688    0.74848   1.00
H2       0.88780    1.01809    0.76242   1.00
H2       0.87477    1.03048    0.71451   1.00
H2       0.87543    0.95125    0.78891   1.00
H2       0.82873    0.94574    0.76880   1.00
H2       0.86566    0.91122    0.75886   1.00
H2       0.84360    0.85202    0.63890   1.00
H2       0.81593    0.89435    0.63068   1.00
H2       0.86335    0.89035    0.61070   1.00
H2       0.91838    0.89416    0.70644   1.00
H2       0.90255    0.85212    0.68179   1.00
H2       0.92335    0.89085    0.65504   1.00
H2       0.87006    1.03656    0.64689   1.00
H2       0.89263    1.02381    0.60226   1.00
H2       0.84497    1.00834    0.61216   1.00
H2       0.94931    0.99044    0.62901   1.00
H2       0.93513    1.00622    0.67593   1.00
H2       0.94618    0.95657    0.66720   1.00
C4       0.47916    0.75302    0.74960   1.00
C4       0.52088    0.75259    0.75019   1.00
C3       0.45636    0.78442    0.76411   1.00
C3       0.54384    0.78182    0.76850   1.00
C3       0.45877    0.72009    0.73425   1.00
C3       0.54114    0.72140    0.73143   1.00
C2       0.39488    0.75083    0.74913   1.00
C2       0.60512    0.74917    0.75087   1.00
C3       0.41538    0.78329    0.76410   1.00
C3       0.58481    0.78038    0.76853   1.00
C3       0.41742    0.71983    0.73383   1.00
C3       0.58238    0.71961    0.73324   1.00
H1       0.46885    0.80910    0.77499   1.00
H1       0.53148    0.80490    0.78257   1.00
C5       0.47980    0.68773    0.71926   1.00
C5       0.52020    0.69197    0.71128   1.00
H1       0.40045    0.80675    0.77524   1.00
H1       0.59990    0.80251    0.78194   1.00
H1       0.40320    0.69649    0.72174   1.00
H1       0.59632    0.69582    0.72184   1.00
O3       0.46039    0.65360    0.71058   1.00
O3       0.53901    0.66615    0.68665   1.00
Si1      0.45753    0.61900    0.74322   1.00
Si1      0.54721    0.67918    0.64159   1.00
C6       0.42462    0.58877    0.71759   1.00
C6       0.50402    0.59724    0.74669   1.00
C6       0.43747    0.63480    0.78796   1.00
C6       0.53307    0.72658    0.62691   1.00
C6       0.59802    0.67440    0.63717   1.00
C6       0.52523    0.64393    0.61132   1.00
C6       0.38806    0.60968    0.69972   1.00
H2       0.44209    0.57950    0.69259   1.00
C6       0.40853    0.55017    0.73631   1.00
H2       0.51642    0.60361    0.71807   1.00
C6       0.53366    0.61408    0.77706   1.00
C6       0.50664    0.55188    0.75137   1.00
H2       0.41169    0.65098    0.77842   1.00
C6       0.42228    0.60259    0.81665   1.00
C6       0.46151    0.66323    0.81476   1.00
C6       0.48929    0.73844    0.63192   1.00
C6       0.55775    0.76264    0.64033   1.00
H2       0.53788    0.72559    0.59544   1.00
H2       0.60949    0.69811    0.65506   1.00
C6       0.61622    0.63623    0.65450   1.00
C6       0.61607    0.67972    0.59559   1.00
H2       0.54625    0.61999    0.61081   1.00
C6       0.48664    0.62537    0.62668   1.00
C6       0.51756    0.65487    0.56761   1.00
H2       0.39654    0.63379    0.68067   1.00
H2       0.36910    0.62135    0.72256   1.00
H2       0.37083    0.58960    0.68190   1.00
H2       0.40392    0.52815    0.71368   1.00
H2       0.42822    0.53771    0.75783   1.00
H2       0.38036    0.55449    0.75058   1.00
H2       0.56328    0.60402    0.77071   1.00
H2       0.53468    0.64580    0.77643   1.00
H2       0.52648    0.60466    0.80663   1.00
H2       0.49138    0.53685    0.72780   1.00
H2       0.53692    0.54182    0.75016   1.00
H2       0.49450    0.54247    0.77930   1.00
H2       0.44486    0.58089    0.82258   1.00
H2       0.41292    0.61485    0.84461   1.00
H2       0.39668    0.58794    0.80504   1.00
H2       0.48098    0.64752    0.83447   1.00
H2       0.47932    0.68375    0.79862   1.00
H2       0.44172    0.68049    0.83291   1.00
H2       0.48312    0.74848    0.66144   1.00
H2       0.48191    0.76242    0.61220   1.00
H2       0.46952    0.71451    0.62523   1.00
H2       0.54875    0.78891    0.62457   1.00
H2       0.55426    0.76880    0.67127   1.00
H2       0.58878    0.75886    0.63434   1.00
H2       0.64798    0.63890    0.65640   1.00
H2       0.60565    0.63068    0.68407   1.00
H2       0.60965    0.61070    0.63665   1.00
H2       0.60584    0.70644    0.58162   1.00
H2       0.64788    0.68179    0.59745   1.00
H2       0.60915    0.65504    0.57665   1.00
H2       0.46344    0.64689    0.62994   1.00
H2       0.47619    0.60226    0.60737   1.00
H2       0.49166    0.61216    0.65503   1.00
H2       0.50956    0.62901    0.55069   1.00
H2       0.49378    0.67593    0.56487   1.00
H2       0.54343    0.66720    0.55382   1.00
C4       1.02084    0.75302    0.75040   1.00
C4       0.97912    0.75259    0.74981   1.00
C3       1.04364    0.78442    0.73589   1.00
C3       0.95616    0.78182    0.73150   1.00
C3       1.04123    0.72009    0.76575   1.00
C3       0.95886    0.72140    0.76857   1.00
C2       1.10512    0.75083    0.75087   1.00
C2       0.89488    0.74917    0.74913   1.00
C3       1.08462    0.78329    0.73590   1.00
C3       0.91519    0.78038    0.73147   1.00
C3       1.08258    0.71983    0.76617   1.00
C3       0.91762    0.71961    0.76676   1.00
H1       1.03115    0.80910    0.72501   1.00
H1       0.96852    0.80490    0.71743   1.00
C5       1.02020    0.68773    0.78074   1.00
C5       0.97980    0.69197    0.78872   1.00
H1       1.09955    0.80675    0.72476   1.00
H1       0.90010    0.80251    0.71806   1.00
H1       1.09680    0.69649    0.77826   1.00
H1       0.90368    0.69582    0.77816   1.00
O3       1.03961    0.65360    0.78942   1.00
O3       0.96099    0.66615    0.81335   1.00
Si1      1.04247    0.61900    0.75678   1.00
Si1      0.95279    0.67918    0.85841   1.00
C6       1.07538    0.58877    0.78241   1.00
C6       0.99598    0.59724    0.75331   1.00
C6       1.06253    0.63480    0.71204   1.00
C6       0.96693    0.72658    0.87309   1.00
C6       0.90198    0.67440    0.86283   1.00
C6       0.97477    0.64393    0.88868   1.00
C6       1.11194    0.60968    0.80028   1.00
H2       1.05791    0.57950    0.80741   1.00
C6       1.09147    0.55017    0.76369   1.00
H2       0.98358    0.60361    0.78193   1.00
C6       0.96634    0.61408    0.72294   1.00
C6       0.99336    0.55188    0.74863   1.00
H2       1.08831    0.65098    0.72158   1.00
C6       1.07772    0.60259    0.68335   1.00
C6       1.03849    0.66323    0.68524   1.00
C6       1.01071    0.73844    0.86808   1.00
C6       0.94225    0.76264    0.85967   1.00
H2       0.96212    0.72559    0.90456   1.00
H2       0.89051    0.69811    0.84494   1.00
C6       0.88378    0.63623    0.84550   1.00
C6       0.88393    0.67972    0.90441   1.00
H2       0.95375    0.61999    0.88919   1.00
C6       1.01336    0.62537    0.87332   1.00
C6       0.98244    0.65487    0.93239   1.00
H2       1.10346    0.63379    0.81933   1.00
H2       1.13090    0.62135    0.77744   1.00
H2       1.12917    0.58960    0.81810   1.00
H2       1.09608    0.52815    0.78632   1.00
H2       1.07178    0.53771    0.74217   1.00
H2       1.11964    0.55449    0.74942   1.00
H2       0.93672    0.60402    0.72929   1.00
H2       0.96532    0.64580    0.72357   1.00
H2       0.97352    0.60466    0.69337   1.00
H2       1.00862    0.53685    0.77220   1.00
H2       0.96308    0.54182    0.74984   1.00
H2       1.00550    0.54247    0.72070   1.00
H2       1.05514    0.58089    0.67742   1.00
H2       1.08708    0.61485    0.65539   1.00
H2       1.10332    0.58794    0.69496   1.00
H2       1.01902    0.64752    0.66553   1.00
H2       1.02068    0.68375    0.70138   1.00
H2       1.05828    0.68049    0.66709   1.00
H2       1.01688    0.74848    0.83856   1.00
H2       1.01809    0.76242    0.88780   1.00
H2       1.03048    0.71451    0.87477   1.00
H2       0.95125    0.78891    0.87543   1.00
H2       0.94574    0.76880    0.82873   1.00
H2       0.91122    0.75886    0.86566   1.00
H2       0.85202    0.63890    0.84360   1.00
H2       0.89435    0.63068    0.81593   1.00
H2       0.89035    0.61070    0.86335   1.00
H2       0.89416    0.70644    0.91838   1.00
H2       0.85212    0.68179    0.90255   1.00
H2       0.89085    0.65504    0.92335   1.00
H2       1.03656    0.64689    0.87006   1.00
H2       1.02381    0.60226    0.89263   1.00
H2       1.00834    0.61216    0.84497   1.00
H2       0.99044    0.62901    0.94931   1.00
H2       1.00622    0.67593    0.93513   1.00
H2       0.95657    0.66720    0.94618   1.00
C4       0.74960    0.47916    0.75302   1.00
C4       0.75019    0.52088    0.75259   1.00
C3       0.76411    0.45636    0.78442   1.00
C3       0.76850    0.54384    0.78182   1.00
C3       0.73425    0.45877    0.72009   1.00
C3       0.73143    0.54114    0.72140   1.00
C2       0.74913    0.39488    0.75083   1.00
C2       0.75087    0.60512    0.74917   1.00
C3       0.76410    0.41538    0.78329   1.00
C3       0.76853    0.58481    0.78038   1.00
C3       0.73383    0.41742    0.71983   1.00
C3       0.73324    0.58238    0.71961   1.00
H1       0.77499    0.46885    0.80910   1.00
H1       0.78257    0.53148    0.80490   1.00
C5       0.71926    0.47980    0.68773   1.00
C5       0.71128    0.52020    0.69197   1.00
H1       0.77524    0.40045    0.80675   1.00
H1       0.78194    0.59990    0.80251   1.00
H1       0.72174    0.40320    0.69649   1.00
H1       0.72184    0.59632    0.69582   1.00
O3       0.71058    0.46039    0.65360   1.00
O3       0.68665    0.53901    0.66615   1.00
Si1      0.74322    0.45753    0.61900   1.00
Si1      0.64159    0.54721    0.67918   1.00
C6       0.71759    0.42462    0.58877   1.00
C6       0.74669    0.50402    0.59724   1.00
C6       0.78796    0.43747    0.63480   1.00
C6       0.62691    0.53307    0.72658   1.00
C6       0.63717    0.59802    0.67440   1.00
C6       0.61132    0.52523    0.64393   1.00
C6       0.69972    0.38806    0.60968   1.00
H2       0.69259    0.44209    0.57950   1.00
C6       0.73631    0.40853    0.55017   1.00
H2       0.71807    0.51642    0.60361   1.00
C6       0.77706    0.53366    0.61408   1.00
C6       0.75137    0.50664    0.55188   1.00
H2       0.77842    0.41169    0.65098   1.00
C6       0.81665    0.42228    0.60259   1.00
C6       0.81476    0.46151    0.66323   1.00
C6       0.63192    0.48929    0.73844   1.00
C6       0.64033    0.55775    0.76264   1.00
H2       0.59544    0.53788    0.72559   1.00
H2       0.65506    0.60949    0.69811   1.00
C6       0.65450    0.61622    0.63623   1.00
C6       0.59559    0.61607    0.67972   1.00
H2       0.61081    0.54625    0.61999   1.00
C6       0.62668    0.48664    0.62537   1.00
C6       0.56761    0.51756    0.65487   1.00
H2       0.68067    0.39654    0.63379   1.00
H2       0.72256    0.36910    0.62135   1.00
H2       0.68190    0.37083    0.58960   1.00
H2       0.71368    0.40392    0.52815   1.00
H2       0.75783    0.42822    0.53771   1.00
H2       0.75058    0.38036    0.55449   1.00
H2       0.77071    0.56328    0.60402   1.00
H2       0.77643    0.53468    0.64580   1.00
H2       0.80663    0.52648    0.60466   1.00
H2       0.72780    0.49138    0.53685   1.00
H2       0.75016    0.53692    0.54182   1.00
H2       0.77930    0.49450    0.54247   1.00
H2       0.82258    0.44486    0.58089   1.00
H2       0.84461    0.41292    0.61485   1.00
H2       0.80504    0.39668    0.58794   1.00
H2       0.83447    0.48098    0.64752   1.00
H2       0.79862    0.47932    0.68375   1.00
H2       0.83291    0.44172    0.68049   1.00
H2       0.66144    0.48312    0.74848   1.00
H2       0.61220    0.48191    0.76242   1.00
H2       0.62523    0.46952    0.71451   1.00
H2       0.62457    0.54875    0.78891   1.00
H2       0.67127    0.55426    0.76880   1.00
H2       0.63434    0.58878    0.75886   1.00
H2       0.65640    0.64798    0.63890   1.00
H2       0.68407    0.60565    0.63068   1.00
H2       0.63665    0.60965    0.61070   1.00
H2       0.58162    0.60584    0.70644   1.00
H2       0.59745    0.64788    0.68179   1.00
H2       0.57665    0.60915    0.65504   1.00
H2       0.62994    0.46344    0.64689   1.00
H2       0.60737    0.47619    0.60226   1.00
H2       0.65503    0.49166    0.61216   1.00
H2       0.55069    0.50956    0.62901   1.00
H2       0.56487    0.49378    0.67593   1.00
H2       0.55382    0.54343    0.66720   1.00
C4       0.75302    0.74960    0.47916   1.00
C4       0.75259    0.75019    0.52088   1.00
C3       0.78442    0.76411    0.45636   1.00
C3       0.78182    0.76850    0.54384   1.00
C3       0.72009    0.73425    0.45877   1.00
C3       0.72140    0.73143    0.54114   1.00
C2       0.75083    0.74913    0.39488   1.00
C2       0.74917    0.75087    0.60512   1.00
C3       0.78329    0.76410    0.41538   1.00
C3       0.78038    0.76853    0.58481   1.00
C3       0.71983    0.73383    0.41742   1.00
C3       0.71961    0.73324    0.58238   1.00
H1       0.80910    0.77499    0.46885   1.00
H1       0.80490    0.78257    0.53148   1.00
C5       0.68773    0.71926    0.47980   1.00
C5       0.69197    0.71128    0.52020   1.00
H1       0.80675    0.77524    0.40045   1.00
H1       0.80251    0.78194    0.59990   1.00
H1       0.69649    0.72174    0.40320   1.00
H1       0.69582    0.72184    0.59632   1.00
O3       0.65360    0.71058    0.46039   1.00
O3       0.66615    0.68665    0.53901   1.00
Si1      0.61900    0.74322    0.45753   1.00
Si1      0.67918    0.64159    0.54721   1.00
C6       0.58877    0.71759    0.42462   1.00
C6       0.59724    0.74669    0.50402   1.00
C6       0.63480    0.78796    0.43747   1.00
C6       0.72658    0.62691    0.53307   1.00
C6       0.67440    0.63717    0.59802   1.00
C6       0.64393    0.61132    0.52523   1.00
C6       0.60968    0.69972    0.38806   1.00
H2       0.57950    0.69259    0.44209   1.00
C6       0.55017    0.73631    0.40853   1.00
H2       0.60361    0.71807    0.51642   1.00
C6       0.61408    0.77706    0.53366   1.00
C6       0.55188    0.75137    0.50664   1.00
H2       0.65098    0.77842    0.41169   1.00
C6       0.60259    0.81665    0.42228   1.00
C6       0.66323    0.81476    0.46151   1.00
C6       0.73844    0.63192    0.48929   1.00
C6       0.76264    0.64033    0.55775   1.00
H2       0.72559    0.59544    0.53788   1.00
H2       0.69811    0.65506    0.60949   1.00
C6       0.63623    0.65450    0.61622   1.00
C6       0.67972    0.59559    0.61607   1.00
H2       0.61999    0.61081    0.54625   1.00
C6       0.62537    0.62668    0.48664   1.00
C6       0.65487    0.56761    0.51756   1.00
H2       0.63379    0.68067    0.39654   1.00
H2       0.62135    0.72256    0.36910   1.00
H2       0.58960    0.68190    0.37083   1.00
H2       0.52815    0.71368    0.40392   1.00
H2       0.53771    0.75783    0.42822   1.00
H2       0.55449    0.75058    0.38036   1.00
H2       0.60402    0.77071    0.56328   1.00
H2       0.64580    0.77643    0.53468   1.00
H2       0.60466    0.80663    0.52648   1.00
H2       0.53685    0.72780    0.49138   1.00
H2       0.54182    0.75016    0.53692   1.00
H2       0.54247    0.77930    0.49450   1.00
H2       0.58089    0.82258    0.44486   1.00
H2       0.61485    0.84461    0.41292   1.00
H2       0.58794    0.80504    0.39668   1.00
H2       0.64752    0.83447    0.48098   1.00
H2       0.68375    0.79862    0.47932   1.00
H2       0.68049    0.83291    0.44172   1.00
H2       0.74848    0.66144    0.48312   1.00
H2       0.76242    0.61220    0.48191   1.00
H2       0.71451    0.62523    0.46952   1.00
H2       0.78891    0.62457    0.54875   1.00
H2       0.76880    0.67127    0.55426   1.00
H2       0.75886    0.63434    0.58878   1.00
H2       0.63890    0.65640    0.64798   1.00
H2       0.63068    0.68407    0.60565   1.00
H2       0.61070    0.63665    0.60965   1.00
H2       0.70644    0.58162    0.60584   1.00
H2       0.68179    0.59745    0.64788   1.00
H2       0.65504    0.57665    0.60915   1.00
H2       0.64689    0.62994    0.46344   1.00
H2       0.60226    0.60737    0.47619   1.00
H2       0.61216    0.65503    0.49166   1.00
H2       0.62901    0.55069    0.50956   1.00
H2       0.67593    0.56487    0.49378   1.00
H2       0.66720    0.55382    0.54343   1.00
C4       0.25302    0.25040    1.02084   1.00
C4       0.25259    0.24981    0.97912   1.00
C3       0.28442    0.23589    1.04364   1.00
C3       0.28182    0.23150    0.95616   1.00
C3       0.22009    0.26575    1.04123   1.00
C3       0.22140    0.26857    0.95886   1.00
C2       0.25083    0.25087    1.10512   1.00
C2       0.24917    0.24913    0.89488   1.00
C3       0.28329    0.23590    1.08462   1.00
C3       0.28038    0.23147    0.91519   1.00
C3       0.21983    0.26617    1.08258   1.00
C3       0.21961    0.26676    0.91762   1.00
H1       0.30910    0.22501    1.03115   1.00
H1       0.30490    0.21743    0.96852   1.00
C5       0.18773    0.28074    1.02020   1.00
C5       0.19197    0.28872    0.97980   1.00
H1       0.30675    0.22476    1.09955   1.00
H1       0.30251    0.21806    0.90010   1.00
H1       0.19649    0.27826    1.09680   1.00
H1       0.19582    0.27816    0.90368   1.00
O3       0.15360    0.28942    1.03961   1.00
O3       0.16615    0.31335    0.96099   1.00
Si1      0.11900    0.25678    1.04247   1.00
Si1      0.17918    0.35841    0.95279   1.00
C6       0.08877    0.28241    1.07538   1.00
C6       0.09724    0.25331    0.99598   1.00
C6       0.13480    0.21204    1.06253   1.00
C6       0.22658    0.37309    0.96693   1.00
C6       0.17440    0.36283    0.90198   1.00
C6       0.14393    0.38868    0.97477   1.00
C6       0.10968    0.30028    1.11194   1.00
H2       0.07950    0.30741    1.05791   1.00
C6       0.05017    0.26369    1.09147   1.00
H2       0.10361    0.28193    0.98358   1.00
C6       0.11408    0.22294    0.96634   1.00
C6       0.05188    0.24863    0.99336   1.00
H2       0.15098    0.22158    1.08831   1.00
C6       0.10259    0.18335    1.07772   1.00
C6       0.16323    0.18524    1.03849   1.00
C6       0.23844    0.36808    1.01071   1.00
C6       0.26264    0.35967    0.94225   1.00
H2       0.22559    0.40456    0.96212   1.00
H2       0.19811    0.34494    0.89051   1.00
C6       0.13623    0.34550    0.88378   1.00
C6       0.17972    0.40441    0.88393   1.00
H2       0.11999    0.38919    0.95375   1.00
C6       0.12537    0.37332    1.01336   1.00
C6       0.15487    0.43239    0.98244   1.00
H2       0.13379    0.31933    1.10346   1.00
H2       0.12135    0.27744    1.13090   1.00
H2       0.08960    0.31810    1.12917   1.00
H2       0.02815    0.28632    1.09608   1.00
H2       0.03771    0.24217    1.07178   1.00
H2       0.05449    0.24942    1.11964   1.00
H2       0.10402    0.22929    0.93672   1.00
H2       0.14580    0.22357    0.96532   1.00
H2       0.10466    0.19337    0.97352   1.00
H2       0.03685    0.27220    1.00862   1.00
H2       0.04182    0.24984    0.96308   1.00
H2       0.04247    0.22070    1.00550   1.00
H2       0.08089    0.17742    1.05514   1.00
H2       0.11485    0.15539    1.08708   1.00
H2       0.08794    0.19496    1.10332   1.00
H2       0.14752    0.16553    1.01902   1.00
H2       0.18375    0.20138    1.02068   1.00
H2       0.18049    0.16709    1.05828   1.00
H2       0.24848    0.33856    1.01688   1.00
H2       0.26242    0.38780    1.01809   1.00
H2       0.21451    0.37477    1.03048   1.00
H2       0.28891    0.37543    0.95125   1.00
H2       0.26880    0.32873    0.94574   1.00
H2       0.25886    0.36566    0.91122   1.00
H2       0.13890    0.34360    0.85202   1.00
H2       0.13068    0.31593    0.89435   1.00
H2       0.11070    0.36335    0.89035   1.00
H2       0.20644    0.41838    0.89416   1.00
H2       0.18179    0.40255    0.85212   1.00
H2       0.15504    0.42335    0.89085   1.00
H2       0.14689    0.37006    1.03656   1.00
H2       0.10226    0.39263    1.02381   1.00
H2       0.11216    0.34497    1.00834   1.00
H2       0.12901    0.44931    0.99044   1.00
H2       0.17593    0.43513    1.00622   1.00
H2       0.16720    0.44618    0.95657   1.00
C4       0.25040    0.52084    0.75302   1.00
C4       0.24981    0.47912    0.75259   1.00
C3       0.23589    0.54364    0.78442   1.00
C3       0.23150    0.45616    0.78182   1.00
C3       0.26575    0.54123    0.72009   1.00
C3       0.26857    0.45886    0.72140   1.00
C2       0.25087    0.60512    0.75083   1.00
C2       0.24913    0.39488    0.74917   1.00
C3       0.23590    0.58462    0.78329   1.00
C3       0.23147    0.41519    0.78038   1.00
C3       0.26617    0.58258    0.71983   1.00
C3       0.26676    0.41762    0.71961   1.00
H1       0.22501    0.53115    0.80910   1.00
H1       0.21743    0.46852    0.80490   1.00
C5       0.28074    0.52020    0.68773   1.00
C5       0.28872    0.47980    0.69197   1.00
H1       0.22476    0.59955    0.80675   1.00
H1       0.21806    0.40010    0.80251   1.00
H1       0.27826    0.59680    0.69649   1.00
H1       0.27816    0.40368    0.69582   1.00
O3       0.28942    0.53961    0.65360   1.00
O3       0.31335    0.46099    0.66615   1.00
Si1      0.25678    0.54247    0.61900   1.00
Si1      0.35841    0.45279    0.67918   1.00
C6       0.28241    0.57538    0.58877   1.00
C6       0.25331    0.49598    0.59724   1.00
C6       0.21204    0.56253    0.63480   1.00
C6       0.37309    0.46693    0.72658   1.00
C6       0.36283    0.40198    0.67440   1.00
C6       0.38868    0.47477    0.64393   1.00
C6       0.30028    0.61194    0.60968   1.00
H2       0.30741    0.55791    0.57950   1.00
C6       0.26369    0.59147    0.55017   1.00
H2       0.28193    0.48358    0.60361   1.00
C6       0.22294    0.46634    0.61408   1.00
C6       0.24863    0.49336    0.55188   1.00
H2       0.22158    0.58831    0.65098   1.00
C6       0.18335    0.57772    0.60259   1.00
C6       0.18524    0.53849    0.66323   1.00
C6       0.36808    0.51071    0.73844   1.00
C6       0.35967    0.44225    0.76264   1.00
H2       0.40456    0.46212    0.72559   1.00
H2       0.34494    0.39051    0.69811   1.00
C6       0.34550    0.38378    0.63623   1.00
C6       0.40441    0.38393    0.67972   1.00
H2       0.38919    0.45375    0.61999   1.00
C6       0.37332    0.51336    0.62537   1.00
C6       0.43239    0.48244    0.65487   1.00
H2       0.31933    0.60346    0.63379   1.00
H2       0.27744    0.63090    0.62135   1.00
H2       0.31810    0.62917    0.58960   1.00
H2       0.28632    0.59608    0.52815   1.00
H2       0.24217    0.57178    0.53771   1.00
H2       0.24942    0.61964    0.55449   1.00
H2       0.22929    0.43672    0.60402   1.00
H2       0.22357    0.46532    0.64580   1.00
H2       0.19337    0.47352    0.60466   1.00
H2       0.27220    0.50862    0.53685   1.00
H2       0.24984    0.46308    0.54182   1.00
H2       0.22070    0.50550    0.54247   1.00
H2       0.17742    0.55514    0.58089   1.00
H2       0.15539    0.58708    0.61485   1.00
H2       0.19496    0.60332    0.58794   1.00
H2       0.16553    0.51902    0.64752   1.00
H2       0.20138    0.52068    0.68375   1.00
H2       0.16709    0.55828    0.68049   1.00
H2       0.33856    0.51688    0.74848   1.00
H2       0.38780    0.51809    0.76242   1.00
H2       0.37477    0.53048    0.71451   1.00
H2       0.37543    0.45125    0.78891   1.00
H2       0.32873    0.44574    0.76880   1.00
H2       0.36566    0.41122    0.75886   1.00
H2       0.34360    0.35202    0.63890   1.00
H2       0.31593    0.39435    0.63068   1.00
H2       0.36335    0.39035    0.61070   1.00
H2       0.41838    0.39416    0.70644   1.00
H2       0.40255    0.35212    0.68179   1.00
H2       0.42335    0.39085    0.65504   1.00
H2       0.37006    0.53656    0.64689   1.00
H2       0.39263    0.52381    0.60226   1.00
H2       0.34497    0.50834    0.61216   1.00
H2       0.44931    0.49044    0.62901   1.00
H2       0.43513    0.50622    0.67593   1.00
H2       0.44618    0.45657    0.66720   1.00
C4       -0.02084   0.25302    0.74960   1.00
C4       0.02088    0.25259    0.75019   1.00
C3       -0.04364   0.28442    0.76411   1.00
C3       0.04384    0.28182    0.76850   1.00
C3       -0.04123   0.22009    0.73425   1.00
C3       0.04114    0.22140    0.73143   1.00
C2       -0.10512   0.25083    0.74913   1.00
C2       0.10512    0.24917    0.75087   1.00
C3       -0.08462   0.28329    0.76410   1.00
C3       0.08481    0.28038    0.76853   1.00
C3       -0.08258   0.21983    0.73383   1.00
C3       0.08238    0.21961    0.73324   1.00
H1       -0.03115   0.30910    0.77499   1.00
H1       0.03148    0.30490    0.78257   1.00
C5       -0.02020   0.18773    0.71926   1.00
C5       0.02020    0.19197    0.71128   1.00
H1       -0.09955   0.30675    0.77524   1.00
H1       0.09990    0.30251    0.78194   1.00
H1       -0.09680   0.19649    0.72174   1.00
H1       0.09632    0.19582    0.72184   1.00
O3       -0.03961   0.15360    0.71058   1.00
O3       0.03901    0.16615    0.68665   1.00
Si1      -0.04247   0.11900    0.74322   1.00
Si1      0.04721    0.17918    0.64159   1.00
C6       -0.07538   0.08877    0.71759   1.00
C6       0.00402    0.09724    0.74669   1.00
C6       -0.06253   0.13480    0.78796   1.00
C6       0.03307    0.22658    0.62691   1.00
C6       0.09802    0.17440    0.63717   1.00
C6       0.02523    0.14393    0.61132   1.00
C6       -0.11194   0.10968    0.69972   1.00
H2       -0.05791   0.07950    0.69259   1.00
C6       -0.09147   0.05017    0.73631   1.00
H2       0.01642    0.10361    0.71807   1.00
C6       0.03366    0.11408    0.77706   1.00
C6       0.00664    0.05188    0.75137   1.00
H2       -0.08831   0.15098    0.77842   1.00
C6       -0.07772   0.10259    0.81665   1.00
C6       -0.03849   0.16323    0.81476   1.00
C6       -0.01071   0.23844    0.63192   1.00
C6       0.05775    0.26264    0.64033   1.00
H2       0.03788    0.22559    0.59544   1.00
H2       0.10949    0.19811    0.65506   1.00
C6       0.11622    0.13623    0.65450   1.00
C6       0.11607    0.17972    0.59559   1.00
H2       0.04625    0.11999    0.61081   1.00
C6       -0.01336   0.12537    0.62668   1.00
C6       0.01756    0.15487    0.56761   1.00
H2       -0.10346   0.13379    0.68067   1.00
H2       -0.13090   0.12135    0.72256   1.00
H2       -0.12917   0.08960    0.68190   1.00
H2       -0.09608   0.02815    0.71368   1.00
H2       -0.07178   0.03771    0.75783   1.00
H2       -0.11964   0.05449    0.75058   1.00
H2       0.06328    0.10402    0.77071   1.00
H2       0.03468    0.14580    0.77643   1.00
H2       0.02648    0.10466    0.80663   1.00
H2       -0.00862   0.03685    0.72780   1.00
H2       0.03692    0.04182    0.75016   1.00
H2       -0.00550   0.04247    0.77930   1.00
H2       -0.05514   0.08089    0.82258   1.00
H2       -0.08708   0.11485    0.84461   1.00
H2       -0.10332   0.08794    0.80504   1.00
H2       -0.01902   0.14752    0.83447   1.00
H2       -0.02068   0.18375    0.79862   1.00
H2       -0.05828   0.18049    0.83291   1.00
H2       -0.01688   0.24848    0.66144   1.00
H2       -0.01809   0.26242    0.61220   1.00
H2       -0.03048   0.21451    0.62523   1.00
H2       0.04875    0.28891    0.62457   1.00
H2       0.05426    0.26880    0.67127   1.00
H2       0.08878    0.25886    0.63434   1.00
H2       0.14798    0.13890    0.65640   1.00
H2       0.10565    0.13068    0.68407   1.00
H2       0.10965    0.11070    0.63665   1.00
H2       0.10584    0.20644    0.58162   1.00
H2       0.14788    0.18179    0.59745   1.00
H2       0.10915    0.15504    0.57665   1.00
H2       -0.03656   0.14689    0.62994   1.00
H2       -0.02381   0.10226    0.60737   1.00
H2       -0.00834   0.11216    0.65503   1.00
H2       0.00956    0.12901    0.55069   1.00
H2       -0.00622   0.17593    0.56487   1.00
H2       0.04343    0.16720    0.55382   1.00
C4       0.52084    0.25302    0.75040   1.00
C4       0.47912    0.25259    0.74981   1.00
C3       0.54364    0.28442    0.73589   1.00
C3       0.45616    0.28182    0.73150   1.00
C3       0.54123    0.22009    0.76575   1.00
C3       0.45886    0.22140    0.76857   1.00
C2       0.60512    0.25083    0.75087   1.00
C2       0.39488    0.24917    0.74913   1.00
C3       0.58462    0.28329    0.73590   1.00
C3       0.41519    0.28038    0.73147   1.00
C3       0.58258    0.21983    0.76617   1.00
C3       0.41762    0.21961    0.76676   1.00
H1       0.53115    0.30910    0.72501   1.00
H1       0.46852    0.30490    0.71743   1.00
C5       0.52020    0.18773    0.78074   1.00
C5       0.47980    0.19197    0.78872   1.00
H1       0.59955    0.30675    0.72476   1.00
H1       0.40010    0.30251    0.71806   1.00
H1       0.59680    0.19649    0.77826   1.00
H1       0.40368    0.19582    0.77816   1.00
O3       0.53961    0.15360    0.78942   1.00
O3       0.46099    0.16615    0.81335   1.00
Si1      0.54247    0.11900    0.75678   1.00
Si1      0.45279    0.17918    0.85841   1.00
C6       0.57538    0.08877    0.78241   1.00
C6       0.49598    0.09724    0.75331   1.00
C6       0.56253    0.13480    0.71204   1.00
C6       0.46693    0.22658    0.87309   1.00
C6       0.40198    0.17440    0.86283   1.00
C6       0.47477    0.14393    0.88868   1.00
C6       0.61194    0.10968    0.80028   1.00
H2       0.55791    0.07950    0.80741   1.00
C6       0.59147    0.05017    0.76369   1.00
H2       0.48358    0.10361    0.78193   1.00
C6       0.46634    0.11408    0.72294   1.00
C6       0.49336    0.05188    0.74863   1.00
H2       0.58831    0.15098    0.72158   1.00
C6       0.57772    0.10259    0.68335   1.00
C6       0.53849    0.16323    0.68524   1.00
C6       0.51071    0.23844    0.86808   1.00
C6       0.44225    0.26264    0.85967   1.00
H2       0.46212    0.22559    0.90456   1.00
H2       0.39051    0.19811    0.84494   1.00
C6       0.38378    0.13623    0.84550   1.00
C6       0.38393    0.17972    0.90441   1.00
H2       0.45375    0.11999    0.88919   1.00
C6       0.51336    0.12537    0.87332   1.00
C6       0.48244    0.15487    0.93239   1.00
H2       0.60346    0.13379    0.81933   1.00
H2       0.63090    0.12135    0.77744   1.00
H2       0.62917    0.08960    0.81810   1.00
H2       0.59608    0.02815    0.78632   1.00
H2       0.57178    0.03771    0.74217   1.00
H2       0.61964    0.05449    0.74942   1.00
H2       0.43672    0.10402    0.72929   1.00
H2       0.46532    0.14580    0.72357   1.00
H2       0.47352    0.10466    0.69337   1.00
H2       0.50862    0.03685    0.77220   1.00
H2       0.46308    0.04182    0.74984   1.00
H2       0.50550    0.04247    0.72070   1.00
H2       0.55514    0.08089    0.67742   1.00
H2       0.58708    0.11485    0.65539   1.00
H2       0.60332    0.08794    0.69496   1.00
H2       0.51902    0.14752    0.66553   1.00
H2       0.52068    0.18375    0.70138   1.00
H2       0.55828    0.18049    0.66709   1.00
H2       0.51688    0.24848    0.83856   1.00
H2       0.51809    0.26242    0.88780   1.00
H2       0.53048    0.21451    0.87477   1.00
H2       0.45125    0.28891    0.87543   1.00
H2       0.44574    0.26880    0.82873   1.00
H2       0.41122    0.25886    0.86566   1.00
H2       0.35202    0.13890    0.84360   1.00
H2       0.39435    0.13068    0.81593   1.00
H2       0.39035    0.11070    0.86335   1.00
H2       0.39416    0.20644    0.91838   1.00
H2       0.35212    0.18179    0.90255   1.00
H2       0.39085    0.15504    0.92335   1.00
H2       0.53656    0.14689    0.87006   1.00
H2       0.52381    0.10226    0.89263   1.00
H2       0.50834    0.11216    0.84497   1.00
H2       0.49044    0.12901    0.94931   1.00
H2       0.50622    0.17593    0.93513   1.00
H2       0.45657    0.16720    0.94618   1.00
C4       0.24960    -0.02084   0.75302   1.00
C4       0.25019    0.02088    0.75259   1.00
C3       0.26411    -0.04364   0.78442   1.00
C3       0.26850    0.04384    0.78182   1.00
C3       0.23425    -0.04123   0.72009   1.00
C3       0.23143    0.04114    0.72140   1.00
C2       0.24913    -0.10512   0.75083   1.00
C2       0.25087    0.10512    0.74917   1.00
C3       0.26410    -0.08462   0.78329   1.00
C3       0.26853    0.08481    0.78038   1.00
C3       0.23383    -0.08258   0.71983   1.00
C3       0.23324    0.08238    0.71961   1.00
H1       0.27499    -0.03115   0.80910   1.00
H1       0.28257    0.03148    0.80490   1.00
C5       0.21926    -0.02020   0.68773   1.00
C5       0.21128    0.02020    0.69197   1.00
H1       0.27524    -0.09955   0.80675   1.00
H1       0.28194    0.09990    0.80251   1.00
H1       0.22174    -0.09680   0.69649   1.00
H1       0.22184    0.09632    0.69582   1.00
O3       0.21058    -0.03961   0.65360   1.00
O3       0.18665    0.03901    0.66615   1.00
Si1      0.24322    -0.04247   0.61900   1.00
Si1      0.14159    0.04721    0.67918   1.00
C6       0.21759    -0.07538   0.58877   1.00
C6       0.24669    0.00402    0.59724   1.00
C6       0.28796    -0.06253   0.63480   1.00
C6       0.12691    0.03307    0.72658   1.00
C6       0.13717    0.09802    0.67440   1.00
C6       0.11132    0.02523    0.64393   1.00
C6       0.19972    -0.11194   0.60968   1.00
H2       0.19259    -0.05791   0.57950   1.00
C6       0.23631    -0.09147   0.55017   1.00
H2       0.21807    0.01642    0.60361   1.00
C6       0.27706    0.03366    0.61408   1.00
C6       0.25137    0.00664    0.55188   1.00
H2       0.27842    -0.08831   0.65098   1.00
C6       0.31665    -0.07772   0.60259   1.00
C6       0.31476    -0.03849   0.66323   1.00
C6       0.13192    -0.01071   0.73844   1.00
C6       0.14033    0.05775    0.76264   1.00
H2       0.09544    0.03788    0.72559   1.00
H2       0.15506    0.10949    0.69811   1.00
C6       0.15450    0.11622    0.63623   1.00
C6       0.09559    0.11607    0.67972   1.00
H2       0.11081    0.04625    0.61999   1.00
C6       0.12668    -0.01336   0.62537   1.00
C6       0.06761    0.01756    0.65487   1.00
H2       0.18067    -0.10346   0.63379   1.00
H2       0.22256    -0.13090   0.62135   1.00
H2       0.18190    -0.12917   0.58960   1.00
H2       0.21368    -0.09608   0.52815   1.00
H2       0.25783    -0.07178   0.53771   1.00
H2       0.25058    -0.11964   0.55449   1.00
H2       0.27071    0.06328    0.60402   1.00
H2       0.27643    0.03468    0.64580   1.00
H2       0.30663    0.02648    0.60466   1.00
H2       0.22780    -0.00862   0.53685   1.00
H2       0.25016    0.03692    0.54182   1.00
H2       0.27930    -0.00550   0.54247   1.00
H2       0.32258    -0.05514   0.58089   1.00
H2       0.34461    -0.08708   0.61485   1.00
H2       0.30504    -0.10332   0.58794   1.00
H2       0.33447    -0.01902   0.64752   1.00
H2       0.29862    -0.02068   0.68375   1.00
H2       0.33291    -0.05828   0.68049   1.00
H2       0.16144    -0.01688   0.74848   1.00
H2       0.11220    -0.01809   0.76242   1.00
H2       0.12523    -0.03048   0.71451   1.00
H2       0.12457    0.04875    0.78891   1.00
H2       0.17127    0.05426    0.76880   1.00
H2       0.13434    0.08878    0.75886   1.00
H2       0.15640    0.14798    0.63890   1.00
H2       0.18407    0.10565    0.63068   1.00
H2       0.13665    0.10965    0.61070   1.00
H2       0.08162    0.10584    0.70644   1.00
H2       0.09745    0.14788    0.68179   1.00
H2       0.07665    0.10915    0.65504   1.00
H2       0.12994    -0.03656   0.64689   1.00
H2       0.10737    -0.02381   0.60226   1.00
H2       0.15503    -0.00834   0.61216   1.00
H2       0.05069    0.00956    0.62901   1.00
H2       0.06487    -0.00622   0.67593   1.00
H2       0.05382    0.04343    0.66720   1.00
C4       0.25302    0.24960    0.47916   1.00
C4       0.25259    0.25019    0.52088   1.00
C3       0.28442    0.26411    0.45636   1.00
C3       0.28182    0.26850    0.54384   1.00
C3       0.22009    0.23425    0.45877   1.00
C3       0.22140    0.23143    0.54114   1.00
C2       0.25083    0.24913    0.39488   1.00
C2       0.24917    0.25087    0.60512   1.00
C3       0.28329    0.26410    0.41538   1.00
C3       0.28038    0.26853    0.58481   1.00
C3       0.21983    0.23383    0.41742   1.00
C3       0.21961    0.23324    0.58238   1.00
H1       0.30910    0.27499    0.46885   1.00
H1       0.30490    0.28257    0.53148   1.00
C5       0.18773    0.21926    0.47980   1.00
C5       0.19197    0.21128    0.52020   1.00
H1       0.30675    0.27524    0.40045   1.00
H1       0.30251    0.28194    0.59990   1.00
H1       0.19649    0.22174    0.40320   1.00
H1       0.19582    0.22184    0.59632   1.00
O3       0.15360    0.21058    0.46039   1.00
O3       0.16615    0.18665    0.53901   1.00
Si1      0.11900    0.24322    0.45753   1.00
Si1      0.17918    0.14159    0.54721   1.00
C6       0.08877    0.21759    0.42462   1.00
C6       0.09724    0.24669    0.50402   1.00
C6       0.13480    0.28796    0.43747   1.00
C6       0.22658    0.12691    0.53307   1.00
C6       0.17440    0.13717    0.59802   1.00
C6       0.14393    0.11132    0.52523   1.00
C6       0.10968    0.19972    0.38806   1.00
H2       0.07950    0.19259    0.44209   1.00
C6       0.05017    0.23631    0.40853   1.00
H2       0.10361    0.21807    0.51642   1.00
C6       0.11408    0.27706    0.53366   1.00
C6       0.05188    0.25137    0.50664   1.00
H2       0.15098    0.27842    0.41169   1.00
C6       0.10259    0.31665    0.42228   1.00
C6       0.16323    0.31476    0.46151   1.00
C6       0.23844    0.13192    0.48929   1.00
C6       0.26264    0.14033    0.55775   1.00
H2       0.22559    0.09544    0.53788   1.00
H2       0.19811    0.15506    0.60949   1.00
C6       0.13623    0.15450    0.61622   1.00
C6       0.17972    0.09559    0.61607   1.00
H2       0.11999    0.11081    0.54625   1.00
C6       0.12537    0.12668    0.48664   1.00
C6       0.15487    0.06761    0.51756   1.00
H2       0.13379    0.18067    0.39654   1.00
H2       0.12135    0.22256    0.36910   1.00
H2       0.08960    0.18190    0.37083   1.00
H2       0.02815    0.21368    0.40392   1.00
H2       0.03771    0.25783    0.42822   1.00
H2       0.05449    0.25058    0.38036   1.00
H2       0.10402    0.27071    0.56328   1.00
H2       0.14580    0.27643    0.53468   1.00
H2       0.10466    0.30663    0.52648   1.00
H2       0.03685    0.22780    0.49138   1.00
H2       0.04182    0.25016    0.53692   1.00
H2       0.04247    0.27930    0.49450   1.00
H2       0.08089    0.32258    0.44486   1.00
H2       0.11485    0.34461    0.41292   1.00
H2       0.08794    0.30504    0.39668   1.00
H2       0.14752    0.33447    0.48098   1.00
H2       0.18375    0.29862    0.47932   1.00
H2       0.18049    0.33291    0.44172   1.00
H2       0.24848    0.16144    0.48312   1.00
H2       0.26242    0.11220    0.48191   1.00
H2       0.21451    0.12523    0.46952   1.00
H2       0.28891    0.12457    0.54875   1.00
H2       0.26880    0.17127    0.55426   1.00
H2       0.25886    0.13434    0.58878   1.00
H2       0.13890    0.15640    0.64798   1.00
H2       0.13068    0.18407    0.60565   1.00
H2       0.11070    0.13665    0.60965   1.00
H2       0.20644    0.08162    0.60584   1.00
H2       0.18179    0.09745    0.64788   1.00
H2       0.15504    0.07665    0.60915   1.00
H2       0.14689    0.12994    0.46344   1.00
H2       0.10226    0.10737    0.47619   1.00
H2       0.11216    0.15503    0.49166   1.00
H2       0.12901    0.05069    0.50956   1.00
H2       0.17593    0.06487    0.49378   1.00
H2       0.16720    0.05382    0.54343   1.00
C4       0.25302    0.75040    0.52084   1.00
C4       0.25259    0.74981    0.47912   1.00
C3       0.28442    0.73589    0.54364   1.00
C3       0.28182    0.73150    0.45616   1.00
C3       0.22009    0.76575    0.54123   1.00
C3       0.22140    0.76857    0.45886   1.00
C2       0.25083    0.75087    0.60512   1.00
C2       0.24917    0.74913    0.39488   1.00
C3       0.28329    0.73590    0.58462   1.00
C3       0.28038    0.73147    0.41519   1.00
C3       0.21983    0.76617    0.58258   1.00
C3       0.21961    0.76676    0.41762   1.00
H1       0.30910    0.72501    0.53115   1.00
H1       0.30490    0.71743    0.46852   1.00
C5       0.18773    0.78074    0.52020   1.00
C5       0.19197    0.78872    0.47980   1.00
H1       0.30675    0.72476    0.59955   1.00
H1       0.30251    0.71806    0.40010   1.00
H1       0.19649    0.77826    0.59680   1.00
H1       0.19582    0.77816    0.40368   1.00
O3       0.15360    0.78942    0.53961   1.00
O3       0.16615    0.81335    0.46099   1.00
Si1      0.11900    0.75678    0.54247   1.00
Si1      0.17918    0.85841    0.45279   1.00
C6       0.08877    0.78241    0.57538   1.00
C6       0.09724    0.75331    0.49598   1.00
C6       0.13480    0.71204    0.56253   1.00
C6       0.22658    0.87309    0.46693   1.00
C6       0.17440    0.86283    0.40198   1.00
C6       0.14393    0.88868    0.47477   1.00
C6       0.10968    0.80028    0.61194   1.00
H2       0.07950    0.80741    0.55791   1.00
C6       0.05017    0.76369    0.59147   1.00
H2       0.10361    0.78193    0.48358   1.00
C6       0.11408    0.72294    0.46634   1.00
C6       0.05188    0.74863    0.49336   1.00
H2       0.15098    0.72158    0.58831   1.00
C6       0.10259    0.68335    0.57772   1.00
C6       0.16323    0.68524    0.53849   1.00
C6       0.23844    0.86808    0.51071   1.00
C6       0.26264    0.85967    0.44225   1.00
H2       0.22559    0.90456    0.46212   1.00
H2       0.19811    0.84494    0.39051   1.00
C6       0.13623    0.84550    0.38378   1.00
C6       0.17972    0.90441    0.38393   1.00
H2       0.11999    0.88919    0.45375   1.00
C6       0.12537    0.87332    0.51336   1.00
C6       0.15487    0.93239    0.48244   1.00
H2       0.13379    0.81933    0.60346   1.00
H2       0.12135    0.77744    0.63090   1.00
H2       0.08960    0.81810    0.62917   1.00
H2       0.02815    0.78632    0.59608   1.00
H2       0.03771    0.74217    0.57178   1.00
H2       0.05449    0.74942    0.61964   1.00
H2       0.10402    0.72929    0.43672   1.00
H2       0.14580    0.72357    0.46532   1.00
H2       0.10466    0.69337    0.47352   1.00
H2       0.03685    0.77220    0.50862   1.00
H2       0.04182    0.74984    0.46308   1.00
H2       0.04247    0.72070    0.50550   1.00
H2       0.08089    0.67742    0.55514   1.00
H2       0.11485    0.65539    0.58708   1.00
H2       0.08794    0.69496    0.60332   1.00
H2       0.14752    0.66553    0.51902   1.00
H2       0.18375    0.70138    0.52068   1.00
H2       0.18049    0.66709    0.55828   1.00
H2       0.24848    0.83856    0.51688   1.00
H2       0.26242    0.88780    0.51809   1.00
H2       0.21451    0.87477    0.53048   1.00
H2       0.28891    0.87543    0.45125   1.00
H2       0.26880    0.82873    0.44574   1.00
H2       0.25886    0.86566    0.41122   1.00
H2       0.13890    0.84360    0.35202   1.00
H2       0.13068    0.81593    0.39435   1.00
H2       0.11070    0.86335    0.39035   1.00
H2       0.20644    0.91838    0.39416   1.00
H2       0.18179    0.90255    0.35212   1.00
H2       0.15504    0.92335    0.39085   1.00
H2       0.14689    0.87006    0.53656   1.00
H2       0.10226    0.89263    0.52381   1.00
H2       0.11216    0.84497    0.50834   1.00
H2       0.12901    0.94931    0.49044   1.00
H2       0.17593    0.93513    0.50622   1.00
H2       0.16720    0.94618    0.45657   1.00
C4       0.25040    1.02084    0.25302   1.00
C4       0.24981    0.97912    0.25259   1.00
C3       0.23589    1.04364    0.28442   1.00
C3       0.23150    0.95616    0.28182   1.00
C3       0.26575    1.04123    0.22009   1.00
C3       0.26857    0.95886    0.22140   1.00
C2       0.25087    1.10512    0.25083   1.00
C2       0.24913    0.89488    0.24917   1.00
C3       0.23590    1.08462    0.28329   1.00
C3       0.23147    0.91519    0.28038   1.00
C3       0.26617    1.08258    0.21983   1.00
C3       0.26676    0.91762    0.21961   1.00
H1       0.22501    1.03115    0.30910   1.00
H1       0.21743    0.96852    0.30490   1.00
C5       0.28074    1.02020    0.18773   1.00
C5       0.28872    0.97980    0.19197   1.00
H1       0.22476    1.09955    0.30675   1.00
H1       0.21806    0.90010    0.30251   1.00
H1       0.27826    1.09680    0.19649   1.00
H1       0.27816    0.90368    0.19582   1.00
O3       0.28942    1.03961    0.15360   1.00
O3       0.31335    0.96099    0.16615   1.00
Si1      0.25678    1.04247    0.11900   1.00
Si1      0.35841    0.95279    0.17918   1.00
C6       0.28241    1.07538    0.08877   1.00
C6       0.25331    0.99598    0.09724   1.00
C6       0.21204    1.06253    0.13480   1.00
C6       0.37309    0.96693    0.22658   1.00
C6       0.36283    0.90198    0.17440   1.00
C6       0.38868    0.97477    0.14393   1.00
C6       0.30028    1.11194    0.10968   1.00
H2       0.30741    1.05791    0.07950   1.00
C6       0.26369    1.09147    0.05017   1.00
H2       0.28193    0.98358    0.10361   1.00
C6       0.22294    0.96634    0.11408   1.00
C6       0.24863    0.99336    0.05188   1.00
H2       0.22158    1.08831    0.15098   1.00
C6       0.18335    1.07772    0.10259   1.00
C6       0.18524    1.03849    0.16323   1.00
C6       0.36808    1.01071    0.23844   1.00
C6       0.35967    0.94225    0.26264   1.00
H2       0.40456    0.96212    0.22559   1.00
H2       0.34494    0.89051    0.19811   1.00
C6       0.34550    0.88378    0.13623   1.00
C6       0.40441    0.88393    0.17972   1.00
H2       0.38919    0.95375    0.11999   1.00
C6       0.37332    1.01336    0.12537   1.00
C6       0.43239    0.98244    0.15487   1.00
H2       0.31933    1.10346    0.13379   1.00
H2       0.27744    1.13090    0.12135   1.00
H2       0.31810    1.12917    0.08960   1.00
H2       0.28632    1.09608    0.02815   1.00
H2       0.24217    1.07178    0.03771   1.00
H2       0.24942    1.11964    0.05449   1.00
H2       0.22929    0.93672    0.10402   1.00
H2       0.22357    0.96532    0.14580   1.00
H2       0.19337    0.97352    0.10466   1.00
H2       0.27220    1.00862    0.03685   1.00
H2       0.24984    0.96308    0.04182   1.00
H2       0.22070    1.00550    0.04247   1.00
H2       0.17742    1.05514    0.08089   1.00
H2       0.15539    1.08708    0.11485   1.00
H2       0.19496    1.10332    0.08794   1.00
H2       0.16553    1.01902    0.14752   1.00
H2       0.20138    1.02068    0.18375   1.00
H2       0.16709    1.05828    0.18049   1.00
H2       0.33856    1.01688    0.24848   1.00
H2       0.38780    1.01809    0.26242   1.00
H2       0.37477    1.03048    0.21451   1.00
H2       0.37543    0.95125    0.28891   1.00
H2       0.32873    0.94574    0.26880   1.00
H2       0.36566    0.91122    0.25886   1.00
H2       0.34360    0.85202    0.13890   1.00
H2       0.31593    0.89435    0.13068   1.00
H2       0.36335    0.89035    0.11070   1.00
H2       0.41838    0.89416    0.20644   1.00
H2       0.40255    0.85212    0.18179   1.00
H2       0.42335    0.89085    0.15504   1.00
H2       0.37006    1.03656    0.14689   1.00
H2       0.39263    1.02381    0.10226   1.00
H2       0.34497    1.00834    0.11216   1.00
H2       0.44931    0.99044    0.12901   1.00
H2       0.43513    1.00622    0.17593   1.00
H2       0.44618    0.95657    0.16720   1.00
C4       -0.02084   0.75302    0.24960   1.00
C4       0.02088    0.75259    0.25019   1.00
C3       -0.04364   0.78442    0.26411   1.00
C3       0.04384    0.78182    0.26850   1.00
C3       -0.04123   0.72009    0.23425   1.00
C3       0.04114    0.72140    0.23143   1.00
C2       -0.10512   0.75083    0.24913   1.00
C2       0.10512    0.74917    0.25087   1.00
C3       -0.08462   0.78329    0.26410   1.00
C3       0.08481    0.78038    0.26853   1.00
C3       -0.08258   0.71983    0.23383   1.00
C3       0.08238    0.71961    0.23324   1.00
H1       -0.03115   0.80910    0.27499   1.00
H1       0.03148    0.80490    0.28257   1.00
C5       -0.02020   0.68773    0.21926   1.00
C5       0.02020    0.69197    0.21128   1.00
H1       -0.09955   0.80675    0.27524   1.00
H1       0.09990    0.80251    0.28194   1.00
H1       -0.09680   0.69649    0.22174   1.00
H1       0.09632    0.69582    0.22184   1.00
O3       -0.03961   0.65360    0.21058   1.00
O3       0.03901    0.66615    0.18665   1.00
Si1      -0.04247   0.61900    0.24322   1.00
Si1      0.04721    0.67918    0.14159   1.00
C6       -0.07538   0.58877    0.21759   1.00
C6       0.00402    0.59724    0.24669   1.00
C6       -0.06253   0.63480    0.28796   1.00
C6       0.03307    0.72658    0.12691   1.00
C6       0.09802    0.67440    0.13717   1.00
C6       0.02523    0.64393    0.11132   1.00
C6       -0.11194   0.60968    0.19972   1.00
H2       -0.05791   0.57950    0.19259   1.00
C6       -0.09147   0.55017    0.23631   1.00
H2       0.01642    0.60361    0.21807   1.00
C6       0.03366    0.61408    0.27706   1.00
C6       0.00664    0.55188    0.25137   1.00
H2       -0.08831   0.65098    0.27842   1.00
C6       -0.07772   0.60259    0.31665   1.00
C6       -0.03849   0.66323    0.31476   1.00
C6       -0.01071   0.73844    0.13192   1.00
C6       0.05775    0.76264    0.14033   1.00
H2       0.03788    0.72559    0.09544   1.00
H2       0.10949    0.69811    0.15506   1.00
C6       0.11622    0.63623    0.15450   1.00
C6       0.11607    0.67972    0.09559   1.00
H2       0.04625    0.61999    0.11081   1.00
C6       -0.01336   0.62537    0.12668   1.00
C6       0.01756    0.65487    0.06761   1.00
H2       -0.10346   0.63379    0.18067   1.00
H2       -0.13090   0.62135    0.22256   1.00
H2       -0.12917   0.58960    0.18190   1.00
H2       -0.09608   0.52815    0.21368   1.00
H2       -0.07178   0.53771    0.25783   1.00
H2       -0.11964   0.55449    0.25058   1.00
H2       0.06328    0.60402    0.27071   1.00
H2       0.03468    0.64580    0.27643   1.00
H2       0.02648    0.60466    0.30663   1.00
H2       -0.00862   0.53685    0.22780   1.00
H2       0.03692    0.54182    0.25016   1.00
H2       -0.00550   0.54247    0.27930   1.00
H2       -0.05514   0.58089    0.32258   1.00
H2       -0.08708   0.61485    0.34461   1.00
H2       -0.10332   0.58794    0.30504   1.00
H2       -0.01902   0.64752    0.33447   1.00
H2       -0.02068   0.68375    0.29862   1.00
H2       -0.05828   0.68049    0.33291   1.00
H2       -0.01688   0.74848    0.16144   1.00
H2       -0.01809   0.76242    0.11220   1.00
H2       -0.03048   0.71451    0.12523   1.00
H2       0.04875    0.78891    0.12457   1.00
H2       0.05426    0.76880    0.17127   1.00
H2       0.08878    0.75886    0.13434   1.00
H2       0.14798    0.63890    0.15640   1.00
H2       0.10565    0.63068    0.18407   1.00
H2       0.10965    0.61070    0.13665   1.00
H2       0.10584    0.70644    0.08162   1.00
H2       0.14788    0.68179    0.09745   1.00
H2       0.10915    0.65504    0.07665   1.00
H2       -0.03656   0.64689    0.12994   1.00
H2       -0.02381   0.60226    0.10737   1.00
H2       -0.00834   0.61216    0.15503   1.00
H2       0.00956    0.62901    0.05069   1.00
H2       -0.00622   0.67593    0.06487   1.00
H2       0.04343    0.66720    0.05382   1.00
C4       0.52084    0.75302    0.25040   1.00
C4       0.47912    0.75259    0.24981   1.00
C3       0.54364    0.78442    0.23589   1.00
C3       0.45616    0.78182    0.23150   1.00
C3       0.54123    0.72009    0.26575   1.00
C3       0.45886    0.72140    0.26857   1.00
C2       0.60512    0.75083    0.25087   1.00
C2       0.39488    0.74917    0.24913   1.00
C3       0.58462    0.78329    0.23590   1.00
C3       0.41519    0.78038    0.23147   1.00
C3       0.58258    0.71983    0.26617   1.00
C3       0.41762    0.71961    0.26676   1.00
H1       0.53115    0.80910    0.22501   1.00
H1       0.46852    0.80490    0.21743   1.00
C5       0.52020    0.68773    0.28074   1.00
C5       0.47980    0.69197    0.28872   1.00
H1       0.59955    0.80675    0.22476   1.00
H1       0.40010    0.80251    0.21806   1.00
H1       0.59680    0.69649    0.27826   1.00
H1       0.40368    0.69582    0.27816   1.00
O3       0.53961    0.65360    0.28942   1.00
O3       0.46099    0.66615    0.31335   1.00
Si1      0.54247    0.61900    0.25678   1.00
Si1      0.45279    0.67918    0.35841   1.00
C6       0.57538    0.58877    0.28241   1.00
C6       0.49598    0.59724    0.25331   1.00
C6       0.56253    0.63480    0.21204   1.00
C6       0.46693    0.72658    0.37309   1.00
C6       0.40198    0.67440    0.36283   1.00
C6       0.47477    0.64393    0.38868   1.00
C6       0.61194    0.60968    0.30028   1.00
H2       0.55791    0.57950    0.30741   1.00
C6       0.59147    0.55017    0.26369   1.00
H2       0.48358    0.60361    0.28193   1.00
C6       0.46634    0.61408    0.22294   1.00
C6       0.49336    0.55188    0.24863   1.00
H2       0.58831    0.65098    0.22158   1.00
C6       0.57772    0.60259    0.18335   1.00
C6       0.53849    0.66323    0.18524   1.00
C6       0.51071    0.73844    0.36808   1.00
C6       0.44225    0.76264    0.35967   1.00
H2       0.46212    0.72559    0.40456   1.00
H2       0.39051    0.69811    0.34494   1.00
C6       0.38378    0.63623    0.34550   1.00
C6       0.38393    0.67972    0.40441   1.00
H2       0.45375    0.61999    0.38919   1.00
C6       0.51336    0.62537    0.37332   1.00
C6       0.48244    0.65487    0.43239   1.00
H2       0.60346    0.63379    0.31933   1.00
H2       0.63090    0.62135    0.27744   1.00
H2       0.62917    0.58960    0.31810   1.00
H2       0.59608    0.52815    0.28632   1.00
H2       0.57178    0.53771    0.24217   1.00
H2       0.61964    0.55449    0.24942   1.00
H2       0.43672    0.60402    0.22929   1.00
H2       0.46532    0.64580    0.22357   1.00
H2       0.47352    0.60466    0.19337   1.00
H2       0.50862    0.53685    0.27220   1.00
H2       0.46308    0.54182    0.24984   1.00
H2       0.50550    0.54247    0.22070   1.00
H2       0.55514    0.58089    0.17742   1.00
H2       0.58708    0.61485    0.15539   1.00
H2       0.60332    0.58794    0.19496   1.00
H2       0.51902    0.64752    0.16553   1.00
H2       0.52068    0.68375    0.20138   1.00
H2       0.55828    0.68049    0.16709   1.00
H2       0.51688    0.74848    0.33856   1.00
H2       0.51809    0.76242    0.38780   1.00
H2       0.53048    0.71451    0.37477   1.00
H2       0.45125    0.78891    0.37543   1.00
H2       0.44574    0.76880    0.32873   1.00
H2       0.41122    0.75886    0.36566   1.00
H2       0.35202    0.63890    0.34360   1.00
H2       0.39435    0.63068    0.31593   1.00
H2       0.39035    0.61070    0.36335   1.00
H2       0.39416    0.70644    0.41838   1.00
H2       0.35212    0.68179    0.40255   1.00
H2       0.39085    0.65504    0.42335   1.00
H2       0.53656    0.64689    0.37006   1.00
H2       0.52381    0.60226    0.39263   1.00
H2       0.50834    0.61216    0.34497   1.00
H2       0.49044    0.62901    0.44931   1.00
H2       0.50622    0.67593    0.43513   1.00
H2       0.45657    0.66720    0.44618   1.00
C4       0.24960    0.47916    0.25302   1.00
C4       0.25019    0.52088    0.25259   1.00
C3       0.26411    0.45636    0.28442   1.00
C3       0.26850    0.54384    0.28182   1.00
C3       0.23425    0.45877    0.22009   1.00
C3       0.23143    0.54114    0.22140   1.00
C2       0.24913    0.39488    0.25083   1.00
C2       0.25087    0.60512    0.24917   1.00
C3       0.26410    0.41538    0.28329   1.00
C3       0.26853    0.58481    0.28038   1.00
C3       0.23383    0.41742    0.21983   1.00
C3       0.23324    0.58238    0.21961   1.00
H1       0.27499    0.46885    0.30910   1.00
H1       0.28257    0.53148    0.30490   1.00
C5       0.21926    0.47980    0.18773   1.00
C5       0.21128    0.52020    0.19197   1.00
H1       0.27524    0.40045    0.30675   1.00
H1       0.28194    0.59990    0.30251   1.00
H1       0.22174    0.40320    0.19649   1.00
H1       0.22184    0.59632    0.19582   1.00
O3       0.21058    0.46039    0.15360   1.00
O3       0.18665    0.53901    0.16615   1.00
Si1      0.24322    0.45753    0.11900   1.00
Si1      0.14159    0.54721    0.17918   1.00
C6       0.21759    0.42462    0.08877   1.00
C6       0.24669    0.50402    0.09724   1.00
C6       0.28796    0.43747    0.13480   1.00
C6       0.12691    0.53307    0.22658   1.00
C6       0.13717    0.59802    0.17440   1.00
C6       0.11132    0.52523    0.14393   1.00
C6       0.19972    0.38806    0.10968   1.00
H2       0.19259    0.44209    0.07950   1.00
C6       0.23631    0.40853    0.05017   1.00
H2       0.21807    0.51642    0.10361   1.00
C6       0.27706    0.53366    0.11408   1.00
C6       0.25137    0.50664    0.05188   1.00
H2       0.27842    0.41169    0.15098   1.00
C6       0.31665    0.42228    0.10259   1.00
C6       0.31476    0.46151    0.16323   1.00
C6       0.13192    0.48929    0.23844   1.00
C6       0.14033    0.55775    0.26264   1.00
H2       0.09544    0.53788    0.22559   1.00
H2       0.15506    0.60949    0.19811   1.00
C6       0.15450    0.61622    0.13623   1.00
C6       0.09559    0.61607    0.17972   1.00
H2       0.11081    0.54625    0.11999   1.00
C6       0.12668    0.48664    0.12537   1.00
C6       0.06761    0.51756    0.15487   1.00
H2       0.18067    0.39654    0.13379   1.00
H2       0.22256    0.36910    0.12135   1.00
H2       0.18190    0.37083    0.08960   1.00
H2       0.21368    0.40392    0.02815   1.00
H2       0.25783    0.42822    0.03771   1.00
H2       0.25058    0.38036    0.05449   1.00
H2       0.27071    0.56328    0.10402   1.00
H2       0.27643    0.53468    0.14580   1.00
H2       0.30663    0.52648    0.10466   1.00
H2       0.22780    0.49138    0.03685   1.00
H2       0.25016    0.53692    0.04182   1.00
H2       0.27930    0.49450    0.04247   1.00
H2       0.32258    0.44486    0.08089   1.00
H2       0.34461    0.41292    0.11485   1.00
H2       0.30504    0.39668    0.08794   1.00
H2       0.33447    0.48098    0.14752   1.00
H2       0.29862    0.47932    0.18375   1.00
H2       0.33291    0.44172    0.18049   1.00
H2       0.16144    0.48312    0.24848   1.00
H2       0.11220    0.48191    0.26242   1.00
H2       0.12523    0.46952    0.21451   1.00
H2       0.12457    0.54875    0.28891   1.00
H2       0.17127    0.55426    0.26880   1.00
H2       0.13434    0.58878    0.25886   1.00
H2       0.15640    0.64798    0.13890   1.00
H2       0.18407    0.60565    0.13068   1.00
H2       0.13665    0.60965    0.11070   1.00
H2       0.08162    0.60584    0.20644   1.00
H2       0.09745    0.64788    0.18179   1.00
H2       0.07665    0.60915    0.15504   1.00
H2       0.12994    0.46344    0.14689   1.00
H2       0.10737    0.47619    0.10226   1.00
H2       0.15503    0.49166    0.11216   1.00
H2       0.05069    0.50956    0.12901   1.00
H2       0.06487    0.49378    0.17593   1.00
H2       0.05382    0.54343    0.16720   1.00
C4       0.25302    0.74960    -0.02084   1.00
C4       0.25259    0.75019    0.02088   1.00
C3       0.28442    0.76411    -0.04364   1.00
C3       0.28182    0.76850    0.04384   1.00
C3       0.22009    0.73425    -0.04123   1.00
C3       0.22140    0.73143    0.04114   1.00
C2       0.25083    0.74913    -0.10512   1.00
C2       0.24917    0.75087    0.10512   1.00
C3       0.28329    0.76410    -0.08462   1.00
C3       0.28038    0.76853    0.08481   1.00
C3       0.21983    0.73383    -0.08258   1.00
C3       0.21961    0.73324    0.08238   1.00
H1       0.30910    0.77499    -0.03115   1.00
H1       0.30490    0.78257    0.03148   1.00
C5       0.18773    0.71926    -0.02020   1.00
C5       0.19197    0.71128    0.02020   1.00
H1       0.30675    0.77524    -0.09955   1.00
H1       0.30251    0.78194    0.09990   1.00
H1       0.19649    0.72174    -0.09680   1.00
H1       0.19582    0.72184    0.09632   1.00
O3       0.15360    0.71058    -0.03961   1.00
O3       0.16615    0.68665    0.03901   1.00
Si1      0.11900    0.74322    -0.04247   1.00
Si1      0.17918    0.64159    0.04721   1.00
C6       0.08877    0.71759    -0.07538   1.00
C6       0.09724    0.74669    0.00402   1.00
C6       0.13480    0.78796    -0.06253   1.00
C6       0.22658    0.62691    0.03307   1.00
C6       0.17440    0.63717    0.09802   1.00
C6       0.14393    0.61132    0.02523   1.00
C6       0.10968    0.69972    -0.11194   1.00
H2       0.07950    0.69259    -0.05791   1.00
C6       0.05017    0.73631    -0.09147   1.00
H2       0.10361    0.71807    0.01642   1.00
C6       0.11408    0.77706    0.03366   1.00
C6       0.05188    0.75137    0.00664   1.00
H2       0.15098    0.77842    -0.08831   1.00
C6       0.10259    0.81665    -0.07772   1.00
C6       0.16323    0.81476    -0.03849   1.00
C6       0.23844    0.63192    -0.01071   1.00
C6       0.26264    0.64033    0.05775   1.00
H2       0.22559    0.59544    0.03788   1.00
H2       0.19811    0.65506    0.10949   1.00
C6       0.13623    0.65450    0.11622   1.00
C6       0.17972    0.59559    0.11607   1.00
H2       0.11999    0.61081    0.04625   1.00
C6       0.12537    0.62668    -0.01336   1.00
C6       0.15487    0.56761    0.01756   1.00
H2       0.13379    0.68067    -0.10346   1.00
H2       0.12135    0.72256    -0.13090   1.00
H2       0.08960    0.68190    -0.12917   1.00
H2       0.02815    0.71368    -0.09608   1.00
H2       0.03771    0.75783    -0.07178   1.00
H2       0.05449    0.75058    -0.11964   1.00
H2       0.10402    0.77071    0.06328   1.00
H2       0.14580    0.77643    0.03468   1.00
H2       0.10466    0.80663    0.02648   1.00
H2       0.03685    0.72780    -0.00862   1.00
H2       0.04182    0.75016    0.03692   1.00
H2       0.04247    0.77930    -0.00550   1.00
H2       0.08089    0.82258    -0.05514   1.00
H2       0.11485    0.84461    -0.08708   1.00
H2       0.08794    0.80504    -0.10332   1.00
H2       0.14752    0.83447    -0.01902   1.00
H2       0.18375    0.79862    -0.02068   1.00
H2       0.18049    0.83291    -0.05828   1.00
H2       0.24848    0.66144    -0.01688   1.00
H2       0.26242    0.61220    -0.01809   1.00
H2       0.21451    0.62523    -0.03048   1.00
H2       0.28891    0.62457    0.04875   1.00
H2       0.26880    0.67127    0.05426   1.00
H2       0.25886    0.63434    0.08878   1.00
H2       0.13890    0.65640    0.14798   1.00
H2       0.13068    0.68407    0.10565   1.00
H2       0.11070    0.63665    0.10965   1.00
H2       0.20644    0.58162    0.10584   1.00
H2       0.18179    0.59745    0.14788   1.00
H2       0.15504    0.57665    0.10915   1.00
H2       0.14689    0.62994    -0.03656   1.00
H2       0.10226    0.60737    -0.02381   1.00
H2       0.11216    0.65503    -0.00834   1.00
H2       0.12901    0.55069    0.00956   1.00
H2       0.17593    0.56487    -0.00622   1.00
H2       0.16720    0.55382    0.04343   1.00
C4       0.75302    0.25040    0.52084   1.00
C4       0.75259    0.24981    0.47912   1.00
C3       0.78442    0.23589    0.54364   1.00
C3       0.78182    0.23150    0.45616   1.00
C3       0.72009    0.26575    0.54123   1.00
C3       0.72140    0.26857    0.45886   1.00
C2       0.75083    0.25087    0.60512   1.00
C2       0.74917    0.24913    0.39488   1.00
C3       0.78329    0.23590    0.58462   1.00
C3       0.78038    0.23147    0.41519   1.00
C3       0.71983    0.26617    0.58258   1.00
C3       0.71961    0.26676    0.41762   1.00
H1       0.80910    0.22501    0.53115   1.00
H1       0.80490    0.21743    0.46852   1.00
C5       0.68773    0.28074    0.52020   1.00
C5       0.69197    0.28872    0.47980   1.00
H1       0.80675    0.22476    0.59955   1.00
H1       0.80251    0.21806    0.40010   1.00
H1       0.69649    0.27826    0.59680   1.00
H1       0.69582    0.27816    0.40368   1.00
O3       0.65360    0.28942    0.53961   1.00
O3       0.66615    0.31335    0.46099   1.00
Si1      0.61900    0.25678    0.54247   1.00
Si1      0.67918    0.35841    0.45279   1.00
C6       0.58877    0.28241    0.57538   1.00
C6       0.59724    0.25331    0.49598   1.00
C6       0.63480    0.21204    0.56253   1.00
C6       0.72658    0.37309    0.46693   1.00
C6       0.67440    0.36283    0.40198   1.00
C6       0.64393    0.38868    0.47477   1.00
C6       0.60968    0.30028    0.61194   1.00
H2       0.57950    0.30741    0.55791   1.00
C6       0.55017    0.26369    0.59147   1.00
H2       0.60361    0.28193    0.48358   1.00
C6       0.61408    0.22294    0.46634   1.00
C6       0.55188    0.24863    0.49336   1.00
H2       0.65098    0.22158    0.58831   1.00
C6       0.60259    0.18335    0.57772   1.00
C6       0.66323    0.18524    0.53849   1.00
C6       0.73844    0.36808    0.51071   1.00
C6       0.76264    0.35967    0.44225   1.00
H2       0.72559    0.40456    0.46212   1.00
H2       0.69811    0.34494    0.39051   1.00
C6       0.63623    0.34550    0.38378   1.00
C6       0.67972    0.40441    0.38393   1.00
H2       0.61999    0.38919    0.45375   1.00
C6       0.62537    0.37332    0.51336   1.00
C6       0.65487    0.43239    0.48244   1.00
H2       0.63379    0.31933    0.60346   1.00
H2       0.62135    0.27744    0.63090   1.00
H2       0.58960    0.31810    0.62917   1.00
H2       0.52815    0.28632    0.59608   1.00
H2       0.53771    0.24217    0.57178   1.00
H2       0.55449    0.24942    0.61964   1.00
H2       0.60402    0.22929    0.43672   1.00
H2       0.64580    0.22357    0.46532   1.00
H2       0.60466    0.19337    0.47352   1.00
H2       0.53685    0.27220    0.50862   1.00
H2       0.54182    0.24984    0.46308   1.00
H2       0.54247    0.22070    0.50550   1.00
H2       0.58089    0.17742    0.55514   1.00
H2       0.61485    0.15539    0.58708   1.00
H2       0.58794    0.19496    0.60332   1.00
H2       0.64752    0.16553    0.51902   1.00
H2       0.68375    0.20138    0.52068   1.00
H2       0.68049    0.16709    0.55828   1.00
H2       0.74848    0.33856    0.51688   1.00
H2       0.76242    0.38780    0.51809   1.00
H2       0.71451    0.37477    0.53048   1.00
H2       0.78891    0.37543    0.45125   1.00
H2       0.76880    0.32873    0.44574   1.00
H2       0.75886    0.36566    0.41122   1.00
H2       0.63890    0.34360    0.35202   1.00
H2       0.63068    0.31593    0.39435   1.00
H2       0.61070    0.36335    0.39035   1.00
H2       0.70644    0.41838    0.39416   1.00
H2       0.68179    0.40255    0.35212   1.00
H2       0.65504    0.42335    0.39085   1.00
H2       0.64689    0.37006    0.53656   1.00
H2       0.60226    0.39263    0.52381   1.00
H2       0.61216    0.34497    0.50834   1.00
H2       0.62901    0.44931    0.49044   1.00
H2       0.67593    0.43513    0.50622   1.00
H2       0.66720    0.44618    0.45657   1.00
C4       0.75040    0.52084    0.25302   1.00
C4       0.74981    0.47912    0.25259   1.00
C3       0.73589    0.54364    0.28442   1.00
C3       0.73150    0.45616    0.28182   1.00
C3       0.76575    0.54123    0.22009   1.00
C3       0.76857    0.45886    0.22140   1.00
C2       0.75087    0.60512    0.25083   1.00
C2       0.74913    0.39488    0.24917   1.00
C3       0.73590    0.58462    0.28329   1.00
C3       0.73147    0.41519    0.28038   1.00
C3       0.76617    0.58258    0.21983   1.00
C3       0.76676    0.41762    0.21961   1.00
H1       0.72501    0.53115    0.30910   1.00
H1       0.71743    0.46852    0.30490   1.00
C5       0.78074    0.52020    0.18773   1.00
C5       0.78872    0.47980    0.19197   1.00
H1       0.72476    0.59955    0.30675   1.00
H1       0.71806    0.40010    0.30251   1.00
H1       0.77826    0.59680    0.19649   1.00
H1       0.77816    0.40368    0.19582   1.00
O3       0.78942    0.53961    0.15360   1.00
O3       0.81335    0.46099    0.16615   1.00
Si1      0.75678    0.54247    0.11900   1.00
Si1      0.85841    0.45279    0.17918   1.00
C6       0.78241    0.57538    0.08877   1.00
C6       0.75331    0.49598    0.09724   1.00
C6       0.71204    0.56253    0.13480   1.00
C6       0.87309    0.46693    0.22658   1.00
C6       0.86283    0.40198    0.17440   1.00
C6       0.88868    0.47477    0.14393   1.00
C6       0.80028    0.61194    0.10968   1.00
H2       0.80741    0.55791    0.07950   1.00
C6       0.76369    0.59147    0.05017   1.00
H2       0.78193    0.48358    0.10361   1.00
C6       0.72294    0.46634    0.11408   1.00
C6       0.74863    0.49336    0.05188   1.00
H2       0.72158    0.58831    0.15098   1.00
C6       0.68335    0.57772    0.10259   1.00
C6       0.68524    0.53849    0.16323   1.00
C6       0.86808    0.51071    0.23844   1.00
C6       0.85967    0.44225    0.26264   1.00
H2       0.90456    0.46212    0.22559   1.00
H2       0.84494    0.39051    0.19811   1.00
C6       0.84550    0.38378    0.13623   1.00
C6       0.90441    0.38393    0.17972   1.00
H2       0.88919    0.45375    0.11999   1.00
C6       0.87332    0.51336    0.12537   1.00
C6       0.93239    0.48244    0.15487   1.00
H2       0.81933    0.60346    0.13379   1.00
H2       0.77744    0.63090    0.12135   1.00
H2       0.81810    0.62917    0.08960   1.00
H2       0.78632    0.59608    0.02815   1.00
H2       0.74217    0.57178    0.03771   1.00
H2       0.74942    0.61964    0.05449   1.00
H2       0.72929    0.43672    0.10402   1.00
H2       0.72357    0.46532    0.14580   1.00
H2       0.69337    0.47352    0.10466   1.00
H2       0.77220    0.50862    0.03685   1.00
H2       0.74984    0.46308    0.04182   1.00
H2       0.72070    0.50550    0.04247   1.00
H2       0.67742    0.55514    0.08089   1.00
H2       0.65539    0.58708    0.11485   1.00
H2       0.69496    0.60332    0.08794   1.00
H2       0.66553    0.51902    0.14752   1.00
H2       0.70138    0.52068    0.18375   1.00
H2       0.66709    0.55828    0.18049   1.00
H2       0.83856    0.51688    0.24848   1.00
H2       0.88780    0.51809    0.26242   1.00
H2       0.87477    0.53048    0.21451   1.00
H2       0.87543    0.45125    0.28891   1.00
H2       0.82873    0.44574    0.26880   1.00
H2       0.86566    0.41122    0.25886   1.00
H2       0.84360    0.35202    0.13890   1.00
H2       0.81593    0.39435    0.13068   1.00
H2       0.86335    0.39035    0.11070   1.00
H2       0.91838    0.39416    0.20644   1.00
H2       0.90255    0.35212    0.18179   1.00
H2       0.92335    0.39085    0.15504   1.00
H2       0.87006    0.53656    0.14689   1.00
H2       0.89263    0.52381    0.10226   1.00
H2       0.84497    0.50834    0.11216   1.00
H2       0.94931    0.49044    0.12901   1.00
H2       0.93513    0.50622    0.17593   1.00
H2       0.94618    0.45657    0.16720   1.00
C4       0.47916    0.25302    0.24960   1.00
C4       0.52088    0.25259    0.25019   1.00
C3       0.45636    0.28442    0.26411   1.00
C3       0.54384    0.28182    0.26850   1.00
C3       0.45877    0.22009    0.23425   1.00
C3       0.54114    0.22140    0.23143   1.00
C2       0.39488    0.25083    0.24913   1.00
C2       0.60512    0.24917    0.25087   1.00
C3       0.41538    0.28329    0.26410   1.00
C3       0.58481    0.28038    0.26853   1.00
C3       0.41742    0.21983    0.23383   1.00
C3       0.58238    0.21961    0.23324   1.00
H1       0.46885    0.30910    0.27499   1.00
H1       0.53148    0.30490    0.28257   1.00
C5       0.47980    0.18773    0.21926   1.00
C5       0.52020    0.19197    0.21128   1.00
H1       0.40045    0.30675    0.27524   1.00
H1       0.59990    0.30251    0.28194   1.00
H1       0.40320    0.19649    0.22174   1.00
H1       0.59632    0.19582    0.22184   1.00
O3       0.46039    0.15360    0.21058   1.00
O3       0.53901    0.16615    0.18665   1.00
Si1      0.45753    0.11900    0.24322   1.00
Si1      0.54721    0.17918    0.14159   1.00
C6       0.42462    0.08877    0.21759   1.00
C6       0.50402    0.09724    0.24669   1.00
C6       0.43747    0.13480    0.28796   1.00
C6       0.53307    0.22658    0.12691   1.00
C6       0.59802    0.17440    0.13717   1.00
C6       0.52523    0.14393    0.11132   1.00
C6       0.38806    0.10968    0.19972   1.00
H2       0.44209    0.07950    0.19259   1.00
C6       0.40853    0.05017    0.23631   1.00
H2       0.51642    0.10361    0.21807   1.00
C6       0.53366    0.11408    0.27706   1.00
C6       0.50664    0.05188    0.25137   1.00
H2       0.41169    0.15098    0.27842   1.00
C6       0.42228    0.10259    0.31665   1.00
C6       0.46151    0.16323    0.31476   1.00
C6       0.48929    0.23844    0.13192   1.00
C6       0.55775    0.26264    0.14033   1.00
H2       0.53788    0.22559    0.09544   1.00
H2       0.60949    0.19811    0.15506   1.00
C6       0.61622    0.13623    0.15450   1.00
C6       0.61607    0.17972    0.09559   1.00
H2       0.54625    0.11999    0.11081   1.00
C6       0.48664    0.12537    0.12668   1.00
C6       0.51756    0.15487    0.06761   1.00
H2       0.39654    0.13379    0.18067   1.00
H2       0.36910    0.12135    0.22256   1.00
H2       0.37083    0.08960    0.18190   1.00
H2       0.40392    0.02815    0.21368   1.00
H2       0.42822    0.03771    0.25783   1.00
H2       0.38036    0.05449    0.25058   1.00
H2       0.56328    0.10402    0.27071   1.00
H2       0.53468    0.14580    0.27643   1.00
H2       0.52648    0.10466    0.30663   1.00
H2       0.49138    0.03685    0.22780   1.00
H2       0.53692    0.04182    0.25016   1.00
H2       0.49450    0.04247    0.27930   1.00
H2       0.44486    0.08089    0.32258   1.00
H2       0.41292    0.11485    0.34461   1.00
H2       0.39668    0.08794    0.30504   1.00
H2       0.48098    0.14752    0.33447   1.00
H2       0.47932    0.18375    0.29862   1.00
H2       0.44172    0.18049    0.33291   1.00
H2       0.48312    0.24848    0.16144   1.00
H2       0.48191    0.26242    0.11220   1.00
H2       0.46952    0.21451    0.12523   1.00
H2       0.54875    0.28891    0.12457   1.00
H2       0.55426    0.26880    0.17127   1.00
H2       0.58878    0.25886    0.13434   1.00
H2       0.64798    0.13890    0.15640   1.00
H2       0.60565    0.13068    0.18407   1.00
H2       0.60965    0.11070    0.13665   1.00
H2       0.60584    0.20644    0.08162   1.00
H2       0.64788    0.18179    0.09745   1.00
H2       0.60915    0.15504    0.07665   1.00
H2       0.46344    0.14689    0.12994   1.00
H2       0.47619    0.10226    0.10737   1.00
H2       0.49166    0.11216    0.15503   1.00
H2       0.50956    0.12901    0.05069   1.00
H2       0.49378    0.17593    0.06487   1.00
H2       0.54343    0.16720    0.05382   1.00
C4       1.02084    0.25302    0.25040   1.00
C4       0.97912    0.25259    0.24981   1.00
C3       1.04364    0.28442    0.23589   1.00
C3       0.95616    0.28182    0.23150   1.00
C3       1.04123    0.22009    0.26575   1.00
C3       0.95886    0.22140    0.26857   1.00
C2       1.10512    0.25083    0.25087   1.00
C2       0.89488    0.24917    0.24913   1.00
C3       1.08462    0.28329    0.23590   1.00
C3       0.91519    0.28038    0.23147   1.00
C3       1.08258    0.21983    0.26617   1.00
C3       0.91762    0.21961    0.26676   1.00
H1       1.03115    0.30910    0.22501   1.00
H1       0.96852    0.30490    0.21743   1.00
C5       1.02020    0.18773    0.28074   1.00
C5       0.97980    0.19197    0.28872   1.00
H1       1.09955    0.30675    0.22476   1.00
H1       0.90010    0.30251    0.21806   1.00
H1       1.09680    0.19649    0.27826   1.00
H1       0.90368    0.19582    0.27816   1.00
O3       1.03961    0.15360    0.28942   1.00
O3       0.96099    0.16615    0.31335   1.00
Si1      1.04247    0.11900    0.25678   1.00
Si1      0.95279    0.17918    0.35841   1.00
C6       1.07538    0.08877    0.28241   1.00
C6       0.99598    0.09724    0.25331   1.00
C6       1.06253    0.13480    0.21204   1.00
C6       0.96693    0.22658    0.37309   1.00
C6       0.90198    0.17440    0.36283   1.00
C6       0.97477    0.14393    0.38868   1.00
C6       1.11194    0.10968    0.30028   1.00
H2       1.05791    0.07950    0.30741   1.00
C6       1.09147    0.05017    0.26369   1.00
H2       0.98358    0.10361    0.28193   1.00
C6       0.96634    0.11408    0.22294   1.00
C6       0.99336    0.05188    0.24863   1.00
H2       1.08831    0.15098    0.22158   1.00
C6       1.07772    0.10259    0.18335   1.00
C6       1.03849    0.16323    0.18524   1.00
C6       1.01071    0.23844    0.36808   1.00
C6       0.94225    0.26264    0.35967   1.00
H2       0.96212    0.22559    0.40456   1.00
H2       0.89051    0.19811    0.34494   1.00
C6       0.88378    0.13623    0.34550   1.00
C6       0.88393    0.17972    0.40441   1.00
H2       0.95375    0.11999    0.38919   1.00
C6       1.01336    0.12537    0.37332   1.00
C6       0.98244    0.15487    0.43239   1.00
H2       1.10346    0.13379    0.31933   1.00
H2       1.13090    0.12135    0.27744   1.00
H2       1.12917    0.08960    0.31810   1.00
H2       1.09608    0.02815    0.28632   1.00
H2       1.07178    0.03771    0.24217   1.00
H2       1.11964    0.05449    0.24942   1.00
H2       0.93672    0.10402    0.22929   1.00
H2       0.96532    0.14580    0.22357   1.00
H2       0.97352    0.10466    0.19337   1.00
H2       1.00862    0.03685    0.27220   1.00
H2       0.96308    0.04182    0.24984   1.00
H2       1.00550    0.04247    0.22070   1.00
H2       1.05514    0.08089    0.17742   1.00
H2       1.08708    0.11485    0.15539   1.00
H2       1.10332    0.08794    0.19496   1.00
H2       1.01902    0.14752    0.16553   1.00
H2       1.02068    0.18375    0.20138   1.00
H2       1.05828    0.18049    0.16709   1.00
H2       1.01688    0.24848    0.33856   1.00
H2       1.01809    0.26242    0.38780   1.00
H2       1.03048    0.21451    0.37477   1.00
H2       0.95125    0.28891    0.37543   1.00
H2       0.94574    0.26880    0.32873   1.00
H2       0.91122    0.25886    0.36566   1.00
H2       0.85202    0.13890    0.34360   1.00
H2       0.89435    0.13068    0.31593   1.00
H2       0.89035    0.11070    0.36335   1.00
H2       0.89416    0.20644    0.41838   1.00
H2       0.85212    0.18179    0.40255   1.00
H2       0.89085    0.15504    0.42335   1.00
H2       1.03656    0.14689    0.37006   1.00
H2       1.02381    0.10226    0.39263   1.00
H2       1.00834    0.11216    0.34497   1.00
H2       0.99044    0.12901    0.44931   1.00
H2       1.00622    0.17593    0.43513   1.00
H2       0.95657    0.16720    0.44618   1.00
C4       0.74960    -0.02084   0.25302   1.00
C4       0.75019    0.02088    0.25259   1.00
C3       0.76411    -0.04364   0.28442   1.00
C3       0.76850    0.04384    0.28182   1.00
C3       0.73425    -0.04123   0.22009   1.00
C3       0.73143    0.04114    0.22140   1.00
C2       0.74913    -0.10512   0.25083   1.00
C2       0.75087    0.10512    0.24917   1.00
C3       0.76410    -0.08462   0.28329   1.00
C3       0.76853    0.08481    0.28038   1.00
C3       0.73383    -0.08258   0.21983   1.00
C3       0.73324    0.08238    0.21961   1.00
H1       0.77499    -0.03115   0.30910   1.00
H1       0.78257    0.03148    0.30490   1.00
C5       0.71926    -0.02020   0.18773   1.00
C5       0.71128    0.02020    0.19197   1.00
H1       0.77524    -0.09955   0.30675   1.00
H1       0.78194    0.09990    0.30251   1.00
H1       0.72174    -0.09680   0.19649   1.00
H1       0.72184    0.09632    0.19582   1.00
O3       0.71058    -0.03961   0.15360   1.00
O3       0.68665    0.03901    0.16615   1.00
Si1      0.74322    -0.04247   0.11900   1.00
Si1      0.64159    0.04721    0.17918   1.00
C6       0.71759    -0.07538   0.08877   1.00
C6       0.74669    0.00402    0.09724   1.00
C6       0.78796    -0.06253   0.13480   1.00
C6       0.62691    0.03307    0.22658   1.00
C6       0.63717    0.09802    0.17440   1.00
C6       0.61132    0.02523    0.14393   1.00
C6       0.69972    -0.11194   0.10968   1.00
H2       0.69259    -0.05791   0.07950   1.00
C6       0.73631    -0.09147   0.05017   1.00
H2       0.71807    0.01642    0.10361   1.00
C6       0.77706    0.03366    0.11408   1.00
C6       0.75137    0.00664    0.05188   1.00
H2       0.77842    -0.08831   0.15098   1.00
C6       0.81665    -0.07772   0.10259   1.00
C6       0.81476    -0.03849   0.16323   1.00
C6       0.63192    -0.01071   0.23844   1.00
C6       0.64033    0.05775    0.26264   1.00
H2       0.59544    0.03788    0.22559   1.00
H2       0.65506    0.10949    0.19811   1.00
C6       0.65450    0.11622    0.13623   1.00
C6       0.59559    0.11607    0.17972   1.00
H2       0.61081    0.04625    0.11999   1.00
C6       0.62668    -0.01336   0.12537   1.00
C6       0.56761    0.01756    0.15487   1.00
H2       0.68067    -0.10346   0.13379   1.00
H2       0.72256    -0.13090   0.12135   1.00
H2       0.68190    -0.12917   0.08960   1.00
H2       0.71368    -0.09608   0.02815   1.00
H2       0.75783    -0.07178   0.03771   1.00
H2       0.75058    -0.11964   0.05449   1.00
H2       0.77071    0.06328    0.10402   1.00
H2       0.77643    0.03468    0.14580   1.00
H2       0.80663    0.02648    0.10466   1.00
H2       0.72780    -0.00862   0.03685   1.00
H2       0.75016    0.03692    0.04182   1.00
H2       0.77930    -0.00550   0.04247   1.00
H2       0.82258    -0.05514   0.08089   1.00
H2       0.84461    -0.08708   0.11485   1.00
H2       0.80504    -0.10332   0.08794   1.00
H2       0.83447    -0.01902   0.14752   1.00
H2       0.79862    -0.02068   0.18375   1.00
H2       0.83291    -0.05828   0.18049   1.00
H2       0.66144    -0.01688   0.24848   1.00
H2       0.61220    -0.01809   0.26242   1.00
H2       0.62523    -0.03048   0.21451   1.00
H2       0.62457    0.04875    0.28891   1.00
H2       0.67127    0.05426    0.26880   1.00
H2       0.63434    0.08878    0.25886   1.00
H2       0.65640    0.14798    0.13890   1.00
H2       0.68407    0.10565    0.13068   1.00
H2       0.63665    0.10965    0.11070   1.00
H2       0.58162    0.10584    0.20644   1.00
H2       0.59745    0.14788    0.18179   1.00
H2       0.57665    0.10915    0.15504   1.00
H2       0.62994    -0.03656   0.14689   1.00
H2       0.60737    -0.02381   0.10226   1.00
H2       0.65503    -0.00834   0.11216   1.00
H2       0.55069    0.00956    0.12901   1.00
H2       0.56487    -0.00622   0.17593   1.00
H2       0.55382    0.04343    0.16720   1.00
C4       0.75302    0.24960    -0.02084   1.00
C4       0.75259    0.25019    0.02088   1.00
C3       0.78442    0.26411    -0.04364   1.00
C3       0.78182    0.26850    0.04384   1.00
C3       0.72009    0.23425    -0.04123   1.00
C3       0.72140    0.23143    0.04114   1.00
C2       0.75083    0.24913    -0.10512   1.00
C2       0.74917    0.25087    0.10512   1.00
C3       0.78329    0.26410    -0.08462   1.00
C3       0.78038    0.26853    0.08481   1.00
C3       0.71983    0.23383    -0.08258   1.00
C3       0.71961    0.23324    0.08238   1.00
H1       0.80910    0.27499    -0.03115   1.00
H1       0.80490    0.28257    0.03148   1.00
C5       0.68773    0.21926    -0.02020   1.00
C5       0.69197    0.21128    0.02020   1.00
H1       0.80675    0.27524    -0.09955   1.00
H1       0.80251    0.28194    0.09990   1.00
H1       0.69649    0.22174    -0.09680   1.00
H1       0.69582    0.22184    0.09632   1.00
O3       0.65360    0.21058    -0.03961   1.00
O3       0.66615    0.18665    0.03901   1.00
Si1      0.61900    0.24322    -0.04247   1.00
Si1      0.67918    0.14159    0.04721   1.00
C6       0.58877    0.21759    -0.07538   1.00
C6       0.59724    0.24669    0.00402   1.00
C6       0.63480    0.28796    -0.06253   1.00
C6       0.72658    0.12691    0.03307   1.00
C6       0.67440    0.13717    0.09802   1.00
C6       0.64393    0.11132    0.02523   1.00
C6       0.60968    0.19972    -0.11194   1.00
H2       0.57950    0.19259    -0.05791   1.00
C6       0.55017    0.23631    -0.09147   1.00
H2       0.60361    0.21807    0.01642   1.00
C6       0.61408    0.27706    0.03366   1.00
C6       0.55188    0.25137    0.00664   1.00
H2       0.65098    0.27842    -0.08831   1.00
C6       0.60259    0.31665    -0.07772   1.00
C6       0.66323    0.31476    -0.03849   1.00
C6       0.73844    0.13192    -0.01071   1.00
C6       0.76264    0.14033    0.05775   1.00
H2       0.72559    0.09544    0.03788   1.00
H2       0.69811    0.15506    0.10949   1.00
C6       0.63623    0.15450    0.11622   1.00
C6       0.67972    0.09559    0.11607   1.00
H2       0.61999    0.11081    0.04625   1.00
C6       0.62537    0.12668    -0.01336   1.00
C6       0.65487    0.06761    0.01756   1.00
H2       0.63379    0.18067    -0.10346   1.00
H2       0.62135    0.22256    -0.13090   1.00
H2       0.58960    0.18190    -0.12917   1.00
H2       0.52815    0.21368    -0.09608   1.00
H2       0.53771    0.25783    -0.07178   1.00
H2       0.55449    0.25058    -0.11964   1.00
H2       0.60402    0.27071    0.06328   1.00
H2       0.64580    0.27643    0.03468   1.00
H2       0.60466    0.30663    0.02648   1.00
H2       0.53685    0.22780    -0.00862   1.00
H2       0.54182    0.25016    0.03692   1.00
H2       0.54247    0.27930    -0.00550   1.00
H2       0.58089    0.32258    -0.05514   1.00
H2       0.61485    0.34461    -0.08708   1.00
H2       0.58794    0.30504    -0.10332   1.00
H2       0.64752    0.33447    -0.01902   1.00
H2       0.68375    0.29862    -0.02068   1.00
H2       0.68049    0.33291    -0.05828   1.00
H2       0.74848    0.16144    -0.01688   1.00
H2       0.76242    0.11220    -0.01809   1.00
H2       0.71451    0.12523    -0.03048   1.00
H2       0.78891    0.12457    0.04875   1.00
H2       0.76880    0.17127    0.05426   1.00
H2       0.75886    0.13434    0.08878   1.00
H2       0.63890    0.15640    0.14798   1.00
H2       0.63068    0.18407    0.10565   1.00
H2       0.61070    0.13665    0.10965   1.00
H2       0.70644    0.08162    0.10584   1.00
H2       0.68179    0.09745    0.14788   1.00
H2       0.65504    0.07665    0.10915   1.00
H2       0.64689    0.12994    -0.03656   1.00
H2       0.60226    0.10737    -0.02381   1.00
H2       0.61216    0.15503    -0.00834   1.00
H2       0.62901    0.05069    0.00956   1.00
H2       0.67593    0.06487    -0.00622   1.00
H2       0.66720    0.05382    0.04343   1.00
