data_IRMOF10_SG202_Ligand4_label_v.

_audit_creation_method             'generated by an auxiliary program of Tobunporous'

_symmetry_space_group_name_H-M     'P 1'
_symmetry_Int_Tables_number        1
_symmetry_cell_setting             triclinic

_cell_length_a                    34.2800
_cell_length_b                    34.2800
_cell_length_c                    34.2800
_cell_angle_alpha                 90.0000
_cell_angle_beta                  90.0000
_cell_angle_gamma                 90.0000

loop_
_atom_site_label
_atom_site_fract_x
_atom_site_fract_y
_atom_site_fract_z
_atom_site_occupancy
O1       0.75000    0.75000    0.75000   1.00
Zn1      0.71720    0.78280    0.78280   1.00
Zn1      0.78280    0.71720    0.78280   1.00
Zn1      0.78280    0.78280    0.71720   1.00
Zn1      0.71720    0.71720    0.71720   1.00
O2       0.72650    0.77350    0.83820   1.00
O2       0.72650    0.83820    0.77350   1.00
O2       0.66180    0.77350    0.77350   1.00
O2       0.77350    0.72650    0.83820   1.00
O2       0.83820    0.72650    0.77350   1.00
O2       0.77350    0.66180    0.77350   1.00
O2       0.77350    0.83820    0.72650   1.00
O2       0.83820    0.77350    0.72650   1.00
O2       0.77350    0.77350    0.66180   1.00
O2       0.66180    0.72650    0.72650   1.00
O2       0.72650    0.66180    0.72650   1.00
O2       0.72650    0.72650    0.66180   1.00
C1       0.75000    0.75000    0.85520   1.00
C1       0.75000    0.85520    0.75000   1.00
C1       0.64480    0.75000    0.75000   1.00
C1       0.85520    0.75000    0.75000   1.00
C1       0.75000    0.64480    0.75000   1.00
C1       0.75000    0.75000    0.64480   1.00
O1       0.25000    0.25000    0.75000   1.00
Zn1      0.21720    0.28280    0.78280   1.00
Zn1      0.28280    0.21720    0.78280   1.00
Zn1      0.28280    0.28280    0.71720   1.00
Zn1      0.21720    0.21720    0.71720   1.00
O2       0.22650    0.27350    0.83820   1.00
O2       0.22650    0.33820    0.77350   1.00
O2       0.16180    0.27350    0.77350   1.00
O2       0.27350    0.22650    0.83820   1.00
O2       0.33820    0.22650    0.77350   1.00
O2       0.27350    0.16180    0.77350   1.00
O2       0.27350    0.33820    0.72650   1.00
O2       0.33820    0.27350    0.72650   1.00
O2       0.27350    0.27350    0.66180   1.00
O2       0.16180    0.22650    0.72650   1.00
O2       0.22650    0.16180    0.72650   1.00
O2       0.22650    0.22650    0.66180   1.00
C1       0.25000    0.25000    0.85520   1.00
C1       0.25000    0.35520    0.75000   1.00
C1       0.14480    0.25000    0.75000   1.00
C1       0.35520    0.25000    0.75000   1.00
C1       0.25000    0.14480    0.75000   1.00
C1       0.25000    0.25000    0.64480   1.00
O1       0.25000    0.75000    0.25000   1.00
Zn1      0.21720    0.78280    0.28280   1.00
Zn1      0.28280    0.71720    0.28280   1.00
Zn1      0.28280    0.78280    0.21720   1.00
Zn1      0.21720    0.71720    0.21720   1.00
O2       0.22650    0.77350    0.33820   1.00
O2       0.22650    0.83820    0.27350   1.00
O2       0.16180    0.77350    0.27350   1.00
O2       0.27350    0.72650    0.33820   1.00
O2       0.33820    0.72650    0.27350   1.00
O2       0.27350    0.66180    0.27350   1.00
O2       0.27350    0.83820    0.22650   1.00
O2       0.33820    0.77350    0.22650   1.00
O2       0.27350    0.77350    0.16180   1.00
O2       0.16180    0.72650    0.22650   1.00
O2       0.22650    0.66180    0.22650   1.00
O2       0.22650    0.72650    0.16180   1.00
C1       0.25000    0.75000    0.35520   1.00
C1       0.25000    0.85520    0.25000   1.00
C1       0.14480    0.75000    0.25000   1.00
C1       0.35520    0.75000    0.25000   1.00
C1       0.25000    0.64480    0.25000   1.00
C1       0.25000    0.75000    0.14480   1.00
O1       0.75000    0.25000    0.25000   1.00
Zn1      0.71720    0.28280    0.28280   1.00
Zn1      0.78280    0.21720    0.28280   1.00
Zn1      0.78280    0.28280    0.21720   1.00
Zn1      0.71720    0.21720    0.21720   1.00
O2       0.72650    0.27350    0.33820   1.00
O2       0.72650    0.33820    0.27350   1.00
O2       0.66180    0.27350    0.27350   1.00
O2       0.77350    0.22650    0.33820   1.00
O2       0.83820    0.22650    0.27350   1.00
O2       0.77350    0.16180    0.27350   1.00
O2       0.77350    0.33820    0.22650   1.00
O2       0.83820    0.27350    0.22650   1.00
O2       0.77350    0.27350    0.16180   1.00
O2       0.66180    0.22650    0.22650   1.00
O2       0.72650    0.16180    0.22650   1.00
O2       0.72650    0.22650    0.16180   1.00
C1       0.75000    0.25000    0.35520   1.00
C1       0.75000    0.35520    0.25000   1.00
C1       0.64480    0.25000    0.25000   1.00
C1       0.85520    0.25000    0.25000   1.00
C1       0.75000    0.14480    0.25000   1.00
C1       0.75000    0.25000    0.14480   1.00
O1       0.25000    0.25000    0.25000   1.00
Zn1      0.28280    0.21720    0.21720   1.00
Zn1      0.21720    0.28280    0.21720   1.00
Zn1      0.21720    0.21720    0.28280   1.00
Zn1      0.28280    0.28280    0.28280   1.00
O2       0.27350    0.22650    0.16180   1.00
O2       0.27350    0.16180    0.22650   1.00
O2       0.33820    0.22650    0.22650   1.00
O2       0.22650    0.27350    0.16180   1.00
O2       0.16180    0.27350    0.22650   1.00
O2       0.22650    0.33820    0.22650   1.00
O2       0.22650    0.16180    0.27350   1.00
O2       0.16180    0.22650    0.27350   1.00
O2       0.22650    0.22650    0.33820   1.00
O2       0.33820    0.27350    0.27350   1.00
O2       0.27350    0.33820    0.27350   1.00
O2       0.27350    0.27350    0.33820   1.00
C1       0.25000    0.25000    0.14480   1.00
C1       0.25000    0.14480    0.25000   1.00
C1       0.35520    0.25000    0.25000   1.00
C1       0.14480    0.25000    0.25000   1.00
C1       0.25000    0.35520    0.25000   1.00
C1       0.25000    0.25000    0.35520   1.00
O1       0.75000    0.75000    0.25000   1.00
Zn1      0.78280    0.71720    0.21720   1.00
Zn1      0.71720    0.78280    0.21720   1.00
Zn1      0.71720    0.71720    0.28280   1.00
Zn1      0.78280    0.78280    0.28280   1.00
O2       0.77350    0.72650    0.16180   1.00
O2       0.77350    0.66180    0.22650   1.00
O2       0.83820    0.72650    0.22650   1.00
O2       0.72650    0.77350    0.16180   1.00
O2       0.66180    0.77350    0.22650   1.00
O2       0.72650    0.83820    0.22650   1.00
O2       0.72650    0.66180    0.27350   1.00
O2       0.66180    0.72650    0.27350   1.00
O2       0.72650    0.72650    0.33820   1.00
O2       0.83820    0.77350    0.27350   1.00
O2       0.77350    0.83820    0.27350   1.00
O2       0.77350    0.77350    0.33820   1.00
C1       0.75000    0.75000    0.14480   1.00
C1       0.75000    0.64480    0.25000   1.00
C1       0.85520    0.75000    0.25000   1.00
C1       0.64480    0.75000    0.25000   1.00
C1       0.75000    0.85520    0.25000   1.00
C1       0.75000    0.75000    0.35520   1.00
O1       0.75000    0.25000    0.75000   1.00
Zn1      0.78280    0.21720    0.71720   1.00
Zn1      0.71720    0.28280    0.71720   1.00
Zn1      0.71720    0.21720    0.78280   1.00
Zn1      0.78280    0.28280    0.78280   1.00
O2       0.77350    0.22650    0.66180   1.00
O2       0.77350    0.16180    0.72650   1.00
O2       0.83820    0.22650    0.72650   1.00
O2       0.72650    0.27350    0.66180   1.00
O2       0.66180    0.27350    0.72650   1.00
O2       0.72650    0.33820    0.72650   1.00
O2       0.72650    0.16180    0.77350   1.00
O2       0.66180    0.22650    0.77350   1.00
O2       0.72650    0.22650    0.83820   1.00
O2       0.83820    0.27350    0.77350   1.00
O2       0.77350    0.33820    0.77350   1.00
O2       0.77350    0.27350    0.83820   1.00
C1       0.75000    0.25000    0.64480   1.00
C1       0.75000    0.14480    0.75000   1.00
C1       0.85520    0.25000    0.75000   1.00
C1       0.64480    0.25000    0.75000   1.00
C1       0.75000    0.35520    0.75000   1.00
C1       0.75000    0.25000    0.85520   1.00
O1       0.25000    0.75000    0.75000   1.00
Zn1      0.28280    0.71720    0.71720   1.00
Zn1      0.21720    0.78280    0.71720   1.00
Zn1      0.21720    0.71720    0.78280   1.00
Zn1      0.28280    0.78280    0.78280   1.00
O2       0.27350    0.72650    0.66180   1.00
O2       0.27350    0.66180    0.72650   1.00
O2       0.33820    0.72650    0.72650   1.00
O2       0.22650    0.77350    0.66180   1.00
O2       0.16180    0.77350    0.72650   1.00
O2       0.22650    0.83820    0.72650   1.00
O2       0.22650    0.66180    0.77350   1.00
O2       0.16180    0.72650    0.77350   1.00
O2       0.22650    0.72650    0.83820   1.00
O2       0.33820    0.77350    0.77350   1.00
O2       0.27350    0.83820    0.77350   1.00
O2       0.27350    0.77350    0.83820   1.00
C1       0.25000    0.75000    0.64480   1.00
C1       0.25000    0.64480    0.75000   1.00
C1       0.35520    0.75000    0.75000   1.00
C1       0.14480    0.75000    0.75000   1.00
C1       0.25000    0.85520    0.75000   1.00
C1       0.25000    0.75000    0.85520   1.00
C4       0.75420    0.75230    0.98025   1.00
C4       0.75561    0.75166    1.02191   1.00
C3       0.73920    0.78473    0.95897   1.00
C3       0.74599    0.78484    1.04504   1.00
C3       0.76815    0.71950    0.95854   1.00
C3       0.76707    0.71675    1.04170   1.00
C2       0.75310    0.75445    0.89595   1.00
C2       0.75659    0.74981    1.10622   1.00
C3       0.73882    0.78592    0.91811   1.00
C3       0.74625    0.78397    1.08591   1.00
C3       0.76745    0.72197    0.91696   1.00
C3       0.76675    0.71700    1.08336   1.00
H1       0.72763    0.80854    0.97237   1.00
H1       0.73880    0.81102    1.03306   1.00
C5       0.78207    0.68536    0.97835   1.00
C5       0.77865    0.68291    1.01998   1.00
H1       0.72776    0.81022    0.90451   1.00
H1       0.73886    0.80884    1.10091   1.00
H1       0.77736    0.69934    0.90052   1.00
H1       0.77446    0.69266    1.09848   1.00
C6       0.80056    0.65262    0.95515   1.00
C6       0.78668    0.64498    1.04119   1.00
H2       0.82019    0.66507    0.93345   1.00
H2       0.76411    0.64037    1.06310   1.00
H2       0.82059    0.63556    0.97286   1.00
H2       0.78248    0.61986    1.02228   1.00
C6       0.76993    0.62451    0.93606   1.00
C6       0.82859    0.64304    1.05942   1.00
H2       0.74645    0.64165    0.92292   1.00
H2       0.83525    0.67071    1.07383   1.00
C6       0.78504    0.59505    0.90459   1.00
C6       0.83715    0.60939    1.08911   1.00
H2       0.75609    0.60790    0.95949   1.00
H2       0.84950    0.64080    1.03546   1.00
C6       0.79954    0.61632    0.86735   1.00
C6       0.81294    0.61401    1.12708   1.00
C6       0.81824    0.56896    0.92074   1.00
C6       0.82899    0.56875    1.07107   1.00
C6       0.75072    0.56807    0.89245   1.00
C6       0.88097    0.61106    1.10054   1.00
H2       0.77696    0.63549    0.85558   1.00
H2       0.81757    0.64269    1.14020   1.00
H2       0.82525    0.63402    0.87330   1.00
H2       0.78183    0.61072    1.12154   1.00
H2       0.80746    0.59551    0.84459   1.00
H2       0.82108    0.59203    1.14863   1.00
H2       0.82664    0.54671    0.89955   1.00
H2       0.83768    0.54545    1.09098   1.00
H2       0.84415    0.58622    0.92725   1.00
H2       0.79800    0.56502    1.06494   1.00
H2       0.80906    0.55427    0.94745   1.00
H2       0.84507    0.56506    1.04385   1.00
H2       0.72659    0.58505    0.88042   1.00
H2       0.88821    0.63910    1.11383   1.00
H2       0.75979    0.54708    0.87025   1.00
H2       0.88835    0.58822    1.12149   1.00
H2       0.73970    0.55162    0.91739   1.00
H2       0.89963    0.60717    1.07502   1.00
C4       0.75230    0.98025    0.75420   1.00
C4       0.75166    1.02191    0.75561   1.00
C3       0.78473    0.95897    0.73920   1.00
C3       0.78484    1.04504    0.74599   1.00
C3       0.71950    0.95854    0.76815   1.00
C3       0.71675    1.04170    0.76707   1.00
C2       0.75445    0.89595    0.75310   1.00
C2       0.74981    1.10622    0.75659   1.00
C3       0.78592    0.91811    0.73882   1.00
C3       0.78397    1.08591    0.74625   1.00
C3       0.72197    0.91696    0.76745   1.00
C3       0.71700    1.08336    0.76675   1.00
H1       0.80854    0.97237    0.72763   1.00
H1       0.81102    1.03306    0.73880   1.00
C5       0.68536    0.97835    0.78207   1.00
C5       0.68291    1.01998    0.77865   1.00
H1       0.81022    0.90451    0.72776   1.00
H1       0.80884    1.10091    0.73886   1.00
H1       0.69934    0.90052    0.77736   1.00
H1       0.69266    1.09848    0.77446   1.00
C6       0.65262    0.95515    0.80056   1.00
C6       0.64498    1.04119    0.78668   1.00
H2       0.66507    0.93345    0.82019   1.00
H2       0.64037    1.06310    0.76411   1.00
H2       0.63556    0.97286    0.82059   1.00
H2       0.61986    1.02228    0.78248   1.00
C6       0.62451    0.93606    0.76993   1.00
C6       0.64304    1.05942    0.82859   1.00
H2       0.64165    0.92292    0.74645   1.00
H2       0.67071    1.07383    0.83525   1.00
C6       0.59505    0.90459    0.78504   1.00
C6       0.60939    1.08911    0.83715   1.00
H2       0.60790    0.95949    0.75609   1.00
H2       0.64080    1.03546    0.84950   1.00
C6       0.61632    0.86735    0.79954   1.00
C6       0.61401    1.12708    0.81294   1.00
C6       0.56896    0.92074    0.81824   1.00
C6       0.56875    1.07107    0.82899   1.00
C6       0.56807    0.89245    0.75072   1.00
C6       0.61106    1.10054    0.88097   1.00
H2       0.63549    0.85558    0.77696   1.00
H2       0.64269    1.14020    0.81757   1.00
H2       0.63402    0.87330    0.82525   1.00
H2       0.61072    1.12154    0.78183   1.00
H2       0.59551    0.84459    0.80746   1.00
H2       0.59203    1.14863    0.82108   1.00
H2       0.54671    0.89955    0.82664   1.00
H2       0.54545    1.09098    0.83768   1.00
H2       0.58622    0.92725    0.84415   1.00
H2       0.56502    1.06494    0.79800   1.00
H2       0.55427    0.94745    0.80906   1.00
H2       0.56506    1.04385    0.84507   1.00
H2       0.58505    0.88042    0.72659   1.00
H2       0.63910    1.11383    0.88821   1.00
H2       0.54708    0.87025    0.75979   1.00
H2       0.58822    1.12149    0.88835   1.00
H2       0.55162    0.91739    0.73970   1.00
H2       0.60717    1.07502    0.89963   1.00
C4       0.51975    0.75420    0.74770   1.00
C4       0.47809    0.75561    0.74834   1.00
C3       0.54103    0.73920    0.71527   1.00
C3       0.45496    0.74599    0.71516   1.00
C3       0.54146    0.76815    0.78050   1.00
C3       0.45830    0.76707    0.78325   1.00
C2       0.60405    0.75310    0.74555   1.00
C2       0.39378    0.75659    0.75019   1.00
C3       0.58189    0.73882    0.71408   1.00
C3       0.41409    0.74625    0.71603   1.00
C3       0.58304    0.76745    0.77803   1.00
C3       0.41664    0.76675    0.78300   1.00
H1       0.52763    0.72763    0.69146   1.00
H1       0.46694    0.73880    0.68898   1.00
C5       0.52165    0.78207    0.81464   1.00
C5       0.48002    0.77865    0.81709   1.00
H1       0.59549    0.72776    0.68978   1.00
H1       0.39909    0.73886    0.69116   1.00
H1       0.59948    0.77736    0.80066   1.00
H1       0.40152    0.77446    0.80734   1.00
C6       0.54485    0.80056    0.84738   1.00
C6       0.45881    0.78668    0.85502   1.00
H2       0.56655    0.82019    0.83493   1.00
H2       0.43690    0.76411    0.85963   1.00
H2       0.52714    0.82059    0.86444   1.00
H2       0.47772    0.78248    0.88014   1.00
C6       0.56394    0.76993    0.87549   1.00
C6       0.44058    0.82859    0.85696   1.00
H2       0.57708    0.74645    0.85835   1.00
H2       0.42617    0.83525    0.82929   1.00
C6       0.59541    0.78504    0.90495   1.00
C6       0.41089    0.83715    0.89061   1.00
H2       0.54051    0.75609    0.89210   1.00
H2       0.46454    0.84950    0.85920   1.00
C6       0.63265    0.79954    0.88368   1.00
C6       0.37292    0.81294    0.88599   1.00
C6       0.57926    0.81824    0.93104   1.00
C6       0.42893    0.82899    0.93125   1.00
C6       0.60755    0.75072    0.93193   1.00
C6       0.39946    0.88097    0.88894   1.00
H2       0.64442    0.77696    0.86451   1.00
H2       0.35980    0.81757    0.85731   1.00
H2       0.62670    0.82525    0.86598   1.00
H2       0.37846    0.78183    0.88928   1.00
H2       0.65541    0.80746    0.90449   1.00
H2       0.35137    0.82108    0.90797   1.00
H2       0.60045    0.82664    0.95329   1.00
H2       0.40902    0.83768    0.95455   1.00
H2       0.57275    0.84415    0.91378   1.00
H2       0.43506    0.79800    0.93498   1.00
H2       0.55255    0.80906    0.94573   1.00
H2       0.45615    0.84507    0.93494   1.00
H2       0.61958    0.72659    0.91495   1.00
H2       0.38617    0.88821    0.86090   1.00
H2       0.62975    0.75979    0.95292   1.00
H2       0.37851    0.88835    0.91178   1.00
H2       0.58261    0.73970    0.94838   1.00
H2       0.42498    0.89963    0.89283   1.00
C4       0.98025    0.75420    0.75230   1.00
C4       1.02191    0.75561    0.75166   1.00
C3       0.95897    0.73920    0.78473   1.00
C3       1.04504    0.74599    0.78484   1.00
C3       0.95854    0.76815    0.71950   1.00
C3       1.04170    0.76707    0.71675   1.00
C2       0.89595    0.75310    0.75445   1.00
C2       1.10622    0.75659    0.74981   1.00
C3       0.91811    0.73882    0.78592   1.00
C3       1.08591    0.74625    0.78397   1.00
C3       0.91696    0.76745    0.72197   1.00
C3       1.08336    0.76675    0.71700   1.00
H1       0.97237    0.72763    0.80854   1.00
H1       1.03306    0.73880    0.81102   1.00
C5       0.97835    0.78207    0.68536   1.00
C5       1.01998    0.77865    0.68291   1.00
H1       0.90451    0.72776    0.81022   1.00
H1       1.10091    0.73886    0.80884   1.00
H1       0.90052    0.77736    0.69934   1.00
H1       1.09848    0.77446    0.69266   1.00
C6       0.95515    0.80056    0.65262   1.00
C6       1.04119    0.78668    0.64498   1.00
H2       0.93345    0.82019    0.66507   1.00
H2       1.06310    0.76411    0.64037   1.00
H2       0.97286    0.82059    0.63556   1.00
H2       1.02228    0.78248    0.61986   1.00
C6       0.93606    0.76993    0.62451   1.00
C6       1.05942    0.82859    0.64304   1.00
H2       0.92292    0.74645    0.64165   1.00
H2       1.07383    0.83525    0.67071   1.00
C6       0.90459    0.78504    0.59505   1.00
C6       1.08911    0.83715    0.60939   1.00
H2       0.95949    0.75609    0.60790   1.00
H2       1.03546    0.84950    0.64080   1.00
C6       0.86735    0.79954    0.61632   1.00
C6       1.12708    0.81294    0.61401   1.00
C6       0.92074    0.81824    0.56896   1.00
C6       1.07107    0.82899    0.56875   1.00
C6       0.89245    0.75072    0.56807   1.00
C6       1.10054    0.88097    0.61106   1.00
H2       0.85558    0.77696    0.63549   1.00
H2       1.14020    0.81757    0.64269   1.00
H2       0.87330    0.82525    0.63402   1.00
H2       1.12154    0.78183    0.61072   1.00
H2       0.84459    0.80746    0.59551   1.00
H2       1.14863    0.82108    0.59203   1.00
H2       0.89955    0.82664    0.54671   1.00
H2       1.09098    0.83768    0.54545   1.00
H2       0.92725    0.84415    0.58622   1.00
H2       1.06494    0.79800    0.56502   1.00
H2       0.94745    0.80906    0.55427   1.00
H2       1.04385    0.84507    0.56506   1.00
H2       0.88042    0.72659    0.58505   1.00
H2       1.11383    0.88821    0.63910   1.00
H2       0.87025    0.75979    0.54708   1.00
H2       1.12149    0.88835    0.58822   1.00
H2       0.91739    0.73970    0.55162   1.00
H2       1.07502    0.89963    0.60717   1.00
C4       0.74770    0.51975    0.75420   1.00
C4       0.74834    0.47809    0.75561   1.00
C3       0.71527    0.54103    0.73920   1.00
C3       0.71516    0.45496    0.74599   1.00
C3       0.78050    0.54146    0.76815   1.00
C3       0.78325    0.45830    0.76707   1.00
C2       0.74555    0.60405    0.75310   1.00
C2       0.75019    0.39378    0.75659   1.00
C3       0.71408    0.58189    0.73882   1.00
C3       0.71603    0.41409    0.74625   1.00
C3       0.77803    0.58304    0.76745   1.00
C3       0.78300    0.41664    0.76675   1.00
H1       0.69146    0.52763    0.72763   1.00
H1       0.68898    0.46694    0.73880   1.00
C5       0.81464    0.52165    0.78207   1.00
C5       0.81709    0.48002    0.77865   1.00
H1       0.68978    0.59549    0.72776   1.00
H1       0.69116    0.39909    0.73886   1.00
H1       0.80066    0.59948    0.77736   1.00
H1       0.80734    0.40152    0.77446   1.00
C6       0.84738    0.54485    0.80056   1.00
C6       0.85502    0.45881    0.78668   1.00
H2       0.83493    0.56655    0.82019   1.00
H2       0.85963    0.43690    0.76411   1.00
H2       0.86444    0.52714    0.82059   1.00
H2       0.88014    0.47772    0.78248   1.00
C6       0.87549    0.56394    0.76993   1.00
C6       0.85696    0.44058    0.82859   1.00
H2       0.85835    0.57708    0.74645   1.00
H2       0.82929    0.42617    0.83525   1.00
C6       0.90495    0.59541    0.78504   1.00
C6       0.89061    0.41089    0.83715   1.00
H2       0.89210    0.54051    0.75609   1.00
H2       0.85920    0.46454    0.84950   1.00
C6       0.88368    0.63265    0.79954   1.00
C6       0.88599    0.37292    0.81294   1.00
C6       0.93104    0.57926    0.81824   1.00
C6       0.93125    0.42893    0.82899   1.00
C6       0.93193    0.60755    0.75072   1.00
C6       0.88894    0.39946    0.88097   1.00
H2       0.86451    0.64442    0.77696   1.00
H2       0.85731    0.35980    0.81757   1.00
H2       0.86598    0.62670    0.82525   1.00
H2       0.88928    0.37846    0.78183   1.00
H2       0.90449    0.65541    0.80746   1.00
H2       0.90797    0.35137    0.82108   1.00
H2       0.95329    0.60045    0.82664   1.00
H2       0.95455    0.40902    0.83768   1.00
H2       0.91378    0.57275    0.84415   1.00
H2       0.93498    0.43506    0.79800   1.00
H2       0.94573    0.55255    0.80906   1.00
H2       0.93494    0.45615    0.84507   1.00
H2       0.91495    0.61958    0.72659   1.00
H2       0.86090    0.38617    0.88821   1.00
H2       0.95292    0.62975    0.75979   1.00
H2       0.91178    0.37851    0.88835   1.00
H2       0.94838    0.58261    0.73970   1.00
H2       0.89283    0.42498    0.89963   1.00
C4       0.75420    0.74770    0.51975   1.00
C4       0.75561    0.74834    0.47809   1.00
C3       0.73920    0.71527    0.54103   1.00
C3       0.74599    0.71516    0.45496   1.00
C3       0.76815    0.78050    0.54146   1.00
C3       0.76707    0.78325    0.45830   1.00
C2       0.75310    0.74555    0.60405   1.00
C2       0.75659    0.75019    0.39378   1.00
C3       0.73882    0.71408    0.58189   1.00
C3       0.74625    0.71603    0.41409   1.00
C3       0.76745    0.77803    0.58304   1.00
C3       0.76675    0.78300    0.41664   1.00
H1       0.72763    0.69146    0.52763   1.00
H1       0.73880    0.68898    0.46694   1.00
C5       0.78207    0.81464    0.52165   1.00
C5       0.77865    0.81709    0.48002   1.00
H1       0.72776    0.68978    0.59549   1.00
H1       0.73886    0.69116    0.39909   1.00
H1       0.77736    0.80066    0.59948   1.00
H1       0.77446    0.80734    0.40152   1.00
C6       0.80056    0.84738    0.54485   1.00
C6       0.78668    0.85502    0.45881   1.00
H2       0.82019    0.83493    0.56655   1.00
H2       0.76411    0.85963    0.43690   1.00
H2       0.82059    0.86444    0.52714   1.00
H2       0.78248    0.88014    0.47772   1.00
C6       0.76993    0.87549    0.56394   1.00
C6       0.82859    0.85696    0.44058   1.00
H2       0.74645    0.85835    0.57708   1.00
H2       0.83525    0.82929    0.42617   1.00
C6       0.78504    0.90495    0.59541   1.00
C6       0.83715    0.89061    0.41089   1.00
H2       0.75609    0.89210    0.54051   1.00
H2       0.84950    0.85920    0.46454   1.00
C6       0.79954    0.88368    0.63265   1.00
C6       0.81294    0.88599    0.37292   1.00
C6       0.81824    0.93104    0.57926   1.00
C6       0.82899    0.93125    0.42893   1.00
C6       0.75072    0.93193    0.60755   1.00
C6       0.88097    0.88894    0.39946   1.00
H2       0.77696    0.86451    0.64442   1.00
H2       0.81757    0.85731    0.35980   1.00
H2       0.82525    0.86598    0.62670   1.00
H2       0.78183    0.88928    0.37846   1.00
H2       0.80746    0.90449    0.65541   1.00
H2       0.82108    0.90797    0.35137   1.00
H2       0.82664    0.95329    0.60045   1.00
H2       0.83768    0.95455    0.40902   1.00
H2       0.84415    0.91378    0.57275   1.00
H2       0.79800    0.93498    0.43506   1.00
H2       0.80906    0.94573    0.55255   1.00
H2       0.84507    0.93494    0.45615   1.00
H2       0.72659    0.91495    0.61958   1.00
H2       0.88821    0.86090    0.38617   1.00
H2       0.75979    0.95292    0.62975   1.00
H2       0.88835    0.91178    0.37851   1.00
H2       0.73970    0.94838    0.58261   1.00
H2       0.89963    0.89283    0.42498   1.00
C4       0.25420    0.25230    0.98025   1.00
C4       0.25561    0.25166    1.02191   1.00
C3       0.23920    0.28473    0.95897   1.00
C3       0.24599    0.28484    1.04504   1.00
C3       0.26815    0.21950    0.95854   1.00
C3       0.26707    0.21675    1.04170   1.00
C2       0.25310    0.25445    0.89595   1.00
C2       0.25659    0.24981    1.10622   1.00
C3       0.23882    0.28592    0.91811   1.00
C3       0.24625    0.28397    1.08591   1.00
C3       0.26745    0.22197    0.91696   1.00
C3       0.26675    0.21700    1.08336   1.00
H1       0.22763    0.30854    0.97237   1.00
H1       0.23880    0.31102    1.03306   1.00
C5       0.28207    0.18536    0.97835   1.00
C5       0.27865    0.18291    1.01998   1.00
H1       0.22776    0.31022    0.90451   1.00
H1       0.23886    0.30884    1.10091   1.00
H1       0.27736    0.19934    0.90052   1.00
H1       0.27446    0.19266    1.09848   1.00
C6       0.30056    0.15262    0.95515   1.00
C6       0.28668    0.14498    1.04119   1.00
H2       0.32019    0.16507    0.93345   1.00
H2       0.26411    0.14037    1.06310   1.00
H2       0.32059    0.13556    0.97286   1.00
H2       0.28248    0.11986    1.02228   1.00
C6       0.26993    0.12451    0.93606   1.00
C6       0.32859    0.14304    1.05942   1.00
H2       0.24645    0.14165    0.92292   1.00
H2       0.33525    0.17071    1.07383   1.00
C6       0.28504    0.09505    0.90459   1.00
C6       0.33715    0.10939    1.08911   1.00
H2       0.25609    0.10790    0.95949   1.00
H2       0.34950    0.14080    1.03546   1.00
C6       0.29954    0.11632    0.86735   1.00
C6       0.31294    0.11401    1.12708   1.00
C6       0.31824    0.06896    0.92074   1.00
C6       0.32899    0.06875    1.07107   1.00
C6       0.25072    0.06807    0.89245   1.00
C6       0.38097    0.11106    1.10054   1.00
H2       0.27696    0.13549    0.85558   1.00
H2       0.31757    0.14269    1.14020   1.00
H2       0.32525    0.13402    0.87330   1.00
H2       0.28183    0.11072    1.12154   1.00
H2       0.30746    0.09551    0.84459   1.00
H2       0.32108    0.09203    1.14863   1.00
H2       0.32664    0.04671    0.89955   1.00
H2       0.33768    0.04545    1.09098   1.00
H2       0.34415    0.08622    0.92725   1.00
H2       0.29800    0.06502    1.06494   1.00
H2       0.30906    0.05427    0.94745   1.00
H2       0.34507    0.06506    1.04385   1.00
H2       0.22659    0.08505    0.88042   1.00
H2       0.38821    0.13910    1.11383   1.00
H2       0.25979    0.04708    0.87025   1.00
H2       0.38835    0.08822    1.12149   1.00
H2       0.23970    0.05162    0.91739   1.00
H2       0.39963    0.10717    1.07502   1.00
C4       0.25230    0.48025    0.75420   1.00
C4       0.25166    0.52191    0.75561   1.00
C3       0.28473    0.45897    0.73920   1.00
C3       0.28484    0.54504    0.74599   1.00
C3       0.21950    0.45854    0.76815   1.00
C3       0.21675    0.54170    0.76707   1.00
C2       0.25445    0.39595    0.75310   1.00
C2       0.24981    0.60622    0.75659   1.00
C3       0.28592    0.41811    0.73882   1.00
C3       0.28397    0.58591    0.74625   1.00
C3       0.22197    0.41696    0.76745   1.00
C3       0.21700    0.58336    0.76675   1.00
H1       0.30854    0.47237    0.72763   1.00
H1       0.31102    0.53306    0.73880   1.00
C5       0.18536    0.47835    0.78207   1.00
C5       0.18291    0.51998    0.77865   1.00
H1       0.31022    0.40451    0.72776   1.00
H1       0.30884    0.60091    0.73886   1.00
H1       0.19934    0.40052    0.77736   1.00
H1       0.19266    0.59848    0.77446   1.00
C6       0.15262    0.45515    0.80056   1.00
C6       0.14498    0.54119    0.78668   1.00
H2       0.16507    0.43345    0.82019   1.00
H2       0.14037    0.56310    0.76411   1.00
H2       0.13556    0.47286    0.82059   1.00
H2       0.11986    0.52228    0.78248   1.00
C6       0.12451    0.43606    0.76993   1.00
C6       0.14304    0.55942    0.82859   1.00
H2       0.14165    0.42292    0.74645   1.00
H2       0.17071    0.57383    0.83525   1.00
C6       0.09505    0.40459    0.78504   1.00
C6       0.10939    0.58911    0.83715   1.00
H2       0.10790    0.45949    0.75609   1.00
H2       0.14080    0.53546    0.84950   1.00
C6       0.11632    0.36735    0.79954   1.00
C6       0.11401    0.62708    0.81294   1.00
C6       0.06896    0.42074    0.81824   1.00
C6       0.06875    0.57107    0.82899   1.00
C6       0.06807    0.39245    0.75072   1.00
C6       0.11106    0.60054    0.88097   1.00
H2       0.13549    0.35558    0.77696   1.00
H2       0.14269    0.64020    0.81757   1.00
H2       0.13402    0.37330    0.82525   1.00
H2       0.11072    0.62154    0.78183   1.00
H2       0.09551    0.34459    0.80746   1.00
H2       0.09203    0.64863    0.82108   1.00
H2       0.04671    0.39955    0.82664   1.00
H2       0.04545    0.59098    0.83768   1.00
H2       0.08622    0.42725    0.84415   1.00
H2       0.06502    0.56494    0.79800   1.00
H2       0.05427    0.44745    0.80906   1.00
H2       0.06506    0.54385    0.84507   1.00
H2       0.08505    0.38042    0.72659   1.00
H2       0.13910    0.61383    0.88821   1.00
H2       0.04708    0.37025    0.75979   1.00
H2       0.08822    0.62149    0.88835   1.00
H2       0.05162    0.41739    0.73970   1.00
H2       0.10717    0.57502    0.89963   1.00
C4       0.01975    0.25420    0.74770   1.00
C4       -0.02191   0.25561    0.74834   1.00
C3       0.04103    0.23920    0.71527   1.00
C3       -0.04504   0.24599    0.71516   1.00
C3       0.04146    0.26815    0.78050   1.00
C3       -0.04170   0.26707    0.78325   1.00
C2       0.10405    0.25310    0.74555   1.00
C2       -0.10622   0.25659    0.75019   1.00
C3       0.08189    0.23882    0.71408   1.00
C3       -0.08591   0.24625    0.71603   1.00
C3       0.08304    0.26745    0.77803   1.00
C3       -0.08336   0.26675    0.78300   1.00
H1       0.02763    0.22763    0.69146   1.00
H1       -0.03306   0.23880    0.68898   1.00
C5       0.02165    0.28207    0.81464   1.00
C5       -0.01998   0.27865    0.81709   1.00
H1       0.09549    0.22776    0.68978   1.00
H1       -0.10091   0.23886    0.69116   1.00
H1       0.09948    0.27736    0.80066   1.00
H1       -0.09848   0.27446    0.80734   1.00
C6       0.04485    0.30056    0.84738   1.00
C6       -0.04119   0.28668    0.85502   1.00
H2       0.06655    0.32019    0.83493   1.00
H2       -0.06310   0.26411    0.85963   1.00
H2       0.02714    0.32059    0.86444   1.00
H2       -0.02228   0.28248    0.88014   1.00
C6       0.06394    0.26993    0.87549   1.00
C6       -0.05942   0.32859    0.85696   1.00
H2       0.07708    0.24645    0.85835   1.00
H2       -0.07383   0.33525    0.82929   1.00
C6       0.09541    0.28504    0.90495   1.00
C6       -0.08911   0.33715    0.89061   1.00
H2       0.04051    0.25609    0.89210   1.00
H2       -0.03546   0.34950    0.85920   1.00
C6       0.13265    0.29954    0.88368   1.00
C6       -0.12708   0.31294    0.88599   1.00
C6       0.07926    0.31824    0.93104   1.00
C6       -0.07107   0.32899    0.93125   1.00
C6       0.10755    0.25072    0.93193   1.00
C6       -0.10054   0.38097    0.88894   1.00
H2       0.14442    0.27696    0.86451   1.00
H2       -0.14020   0.31757    0.85731   1.00
H2       0.12670    0.32525    0.86598   1.00
H2       -0.12154   0.28183    0.88928   1.00
H2       0.15541    0.30746    0.90449   1.00
H2       -0.14863   0.32108    0.90797   1.00
H2       0.10045    0.32664    0.95329   1.00
H2       -0.09098   0.33768    0.95455   1.00
H2       0.07275    0.34415    0.91378   1.00
H2       -0.06494   0.29800    0.93498   1.00
H2       0.05255    0.30906    0.94573   1.00
H2       -0.04385   0.34507    0.93494   1.00
H2       0.11958    0.22659    0.91495   1.00
H2       -0.11383   0.38821    0.86090   1.00
H2       0.12975    0.25979    0.95292   1.00
H2       -0.12149   0.38835    0.91178   1.00
H2       0.08261    0.23970    0.94838   1.00
H2       -0.07502   0.39963    0.89283   1.00
C4       0.48025    0.25420    0.75230   1.00
C4       0.52191    0.25561    0.75166   1.00
C3       0.45897    0.23920    0.78473   1.00
C3       0.54504    0.24599    0.78484   1.00
C3       0.45854    0.26815    0.71950   1.00
C3       0.54170    0.26707    0.71675   1.00
C2       0.39595    0.25310    0.75445   1.00
C2       0.60622    0.25659    0.74981   1.00
C3       0.41811    0.23882    0.78592   1.00
C3       0.58591    0.24625    0.78397   1.00
C3       0.41696    0.26745    0.72197   1.00
C3       0.58336    0.26675    0.71700   1.00
H1       0.47237    0.22763    0.80854   1.00
H1       0.53306    0.23880    0.81102   1.00
C5       0.47835    0.28207    0.68536   1.00
C5       0.51998    0.27865    0.68291   1.00
H1       0.40451    0.22776    0.81022   1.00
H1       0.60091    0.23886    0.80884   1.00
H1       0.40052    0.27736    0.69934   1.00
H1       0.59848    0.27446    0.69266   1.00
C6       0.45515    0.30056    0.65262   1.00
C6       0.54119    0.28668    0.64498   1.00
H2       0.43345    0.32019    0.66507   1.00
H2       0.56310    0.26411    0.64037   1.00
H2       0.47286    0.32059    0.63556   1.00
H2       0.52228    0.28248    0.61986   1.00
C6       0.43606    0.26993    0.62451   1.00
C6       0.55942    0.32859    0.64304   1.00
H2       0.42292    0.24645    0.64165   1.00
H2       0.57383    0.33525    0.67071   1.00
C6       0.40459    0.28504    0.59505   1.00
C6       0.58911    0.33715    0.60939   1.00
H2       0.45949    0.25609    0.60790   1.00
H2       0.53546    0.34950    0.64080   1.00
C6       0.36735    0.29954    0.61632   1.00
C6       0.62708    0.31294    0.61401   1.00
C6       0.42074    0.31824    0.56896   1.00
C6       0.57107    0.32899    0.56875   1.00
C6       0.39245    0.25072    0.56807   1.00
C6       0.60054    0.38097    0.61106   1.00
H2       0.35558    0.27696    0.63549   1.00
H2       0.64020    0.31757    0.64269   1.00
H2       0.37330    0.32525    0.63402   1.00
H2       0.62154    0.28183    0.61072   1.00
H2       0.34459    0.30746    0.59551   1.00
H2       0.64863    0.32108    0.59203   1.00
H2       0.39955    0.32664    0.54671   1.00
H2       0.59098    0.33768    0.54545   1.00
H2       0.42725    0.34415    0.58622   1.00
H2       0.56494    0.29800    0.56502   1.00
H2       0.44745    0.30906    0.55427   1.00
H2       0.54385    0.34507    0.56506   1.00
H2       0.38042    0.22659    0.58505   1.00
H2       0.61383    0.38821    0.63910   1.00
H2       0.37025    0.25979    0.54708   1.00
H2       0.62149    0.38835    0.58822   1.00
H2       0.41739    0.23970    0.55162   1.00
H2       0.57502    0.39963    0.60717   1.00
C4       0.24770    0.01975    0.75420   1.00
C4       0.24834    -0.02191   0.75561   1.00
C3       0.21527    0.04103    0.73920   1.00
C3       0.21516    -0.04504   0.74599   1.00
C3       0.28050    0.04146    0.76815   1.00
C3       0.28325    -0.04170   0.76707   1.00
C2       0.24555    0.10405    0.75310   1.00
C2       0.25019    -0.10622   0.75659   1.00
C3       0.21408    0.08189    0.73882   1.00
C3       0.21603    -0.08591   0.74625   1.00
C3       0.27803    0.08304    0.76745   1.00
C3       0.28300    -0.08336   0.76675   1.00
H1       0.19146    0.02763    0.72763   1.00
H1       0.18898    -0.03306   0.73880   1.00
C5       0.31464    0.02165    0.78207   1.00
C5       0.31709    -0.01998   0.77865   1.00
H1       0.18978    0.09549    0.72776   1.00
H1       0.19116    -0.10091   0.73886   1.00
H1       0.30066    0.09948    0.77736   1.00
H1       0.30734    -0.09848   0.77446   1.00
C6       0.34738    0.04485    0.80056   1.00
C6       0.35502    -0.04119   0.78668   1.00
H2       0.33493    0.06655    0.82019   1.00
H2       0.35963    -0.06310   0.76411   1.00
H2       0.36444    0.02714    0.82059   1.00
H2       0.38014    -0.02228   0.78248   1.00
C6       0.37549    0.06394    0.76993   1.00
C6       0.35696    -0.05942   0.82859   1.00
H2       0.35835    0.07708    0.74645   1.00
H2       0.32929    -0.07383   0.83525   1.00
C6       0.40495    0.09541    0.78504   1.00
C6       0.39061    -0.08911   0.83715   1.00
H2       0.39210    0.04051    0.75609   1.00
H2       0.35920    -0.03546   0.84950   1.00
C6       0.38368    0.13265    0.79954   1.00
C6       0.38599    -0.12708   0.81294   1.00
C6       0.43104    0.07926    0.81824   1.00
C6       0.43125    -0.07107   0.82899   1.00
C6       0.43193    0.10755    0.75072   1.00
C6       0.38894    -0.10054   0.88097   1.00
H2       0.36451    0.14442    0.77696   1.00
H2       0.35731    -0.14020   0.81757   1.00
H2       0.36598    0.12670    0.82525   1.00
H2       0.38928    -0.12154   0.78183   1.00
H2       0.40449    0.15541    0.80746   1.00
H2       0.40797    -0.14863   0.82108   1.00
H2       0.45329    0.10045    0.82664   1.00
H2       0.45455    -0.09098   0.83768   1.00
H2       0.41378    0.07275    0.84415   1.00
H2       0.43498    -0.06494   0.79800   1.00
H2       0.44573    0.05255    0.80906   1.00
H2       0.43494    -0.04385   0.84507   1.00
H2       0.41495    0.11958    0.72659   1.00
H2       0.36090    -0.11383   0.88821   1.00
H2       0.45292    0.12975    0.75979   1.00
H2       0.41178    -0.12149   0.88835   1.00
H2       0.44838    0.08261    0.73970   1.00
H2       0.39283    -0.07502   0.89963   1.00
C4       0.25420    0.24770    0.51975   1.00
C4       0.25561    0.24834    0.47809   1.00
C3       0.23920    0.21527    0.54103   1.00
C3       0.24599    0.21516    0.45496   1.00
C3       0.26815    0.28050    0.54146   1.00
C3       0.26707    0.28325    0.45830   1.00
C2       0.25310    0.24555    0.60405   1.00
C2       0.25659    0.25019    0.39378   1.00
C3       0.23882    0.21408    0.58189   1.00
C3       0.24625    0.21603    0.41409   1.00
C3       0.26745    0.27803    0.58304   1.00
C3       0.26675    0.28300    0.41664   1.00
H1       0.22763    0.19146    0.52763   1.00
H1       0.23880    0.18898    0.46694   1.00
C5       0.28207    0.31464    0.52165   1.00
C5       0.27865    0.31709    0.48002   1.00
H1       0.22776    0.18978    0.59549   1.00
H1       0.23886    0.19116    0.39909   1.00
H1       0.27736    0.30066    0.59948   1.00
H1       0.27446    0.30734    0.40152   1.00
C6       0.30056    0.34738    0.54485   1.00
C6       0.28668    0.35502    0.45881   1.00
H2       0.32019    0.33493    0.56655   1.00
H2       0.26411    0.35963    0.43690   1.00
H2       0.32059    0.36444    0.52714   1.00
H2       0.28248    0.38014    0.47772   1.00
C6       0.26993    0.37549    0.56394   1.00
C6       0.32859    0.35696    0.44058   1.00
H2       0.24645    0.35835    0.57708   1.00
H2       0.33525    0.32929    0.42617   1.00
C6       0.28504    0.40495    0.59541   1.00
C6       0.33715    0.39061    0.41089   1.00
H2       0.25609    0.39210    0.54051   1.00
H2       0.34950    0.35920    0.46454   1.00
C6       0.29954    0.38368    0.63265   1.00
C6       0.31294    0.38599    0.37292   1.00
C6       0.31824    0.43104    0.57926   1.00
C6       0.32899    0.43125    0.42893   1.00
C6       0.25072    0.43193    0.60755   1.00
C6       0.38097    0.38894    0.39946   1.00
H2       0.27696    0.36451    0.64442   1.00
H2       0.31757    0.35731    0.35980   1.00
H2       0.32525    0.36598    0.62670   1.00
H2       0.28183    0.38928    0.37846   1.00
H2       0.30746    0.40449    0.65541   1.00
H2       0.32108    0.40797    0.35137   1.00
H2       0.32664    0.45329    0.60045   1.00
H2       0.33768    0.45455    0.40902   1.00
H2       0.34415    0.41378    0.57275   1.00
H2       0.29800    0.43498    0.43506   1.00
H2       0.30906    0.44573    0.55255   1.00
H2       0.34507    0.43494    0.45615   1.00
H2       0.22659    0.41495    0.61958   1.00
H2       0.38821    0.36090    0.38617   1.00
H2       0.25979    0.45292    0.62975   1.00
H2       0.38835    0.41178    0.37851   1.00
H2       0.23970    0.44838    0.58261   1.00
H2       0.39963    0.39283    0.42498   1.00
C4       0.25420    0.75230    0.48025   1.00
C4       0.25561    0.75166    0.52191   1.00
C3       0.23920    0.78473    0.45897   1.00
C3       0.24599    0.78484    0.54504   1.00
C3       0.26815    0.71950    0.45854   1.00
C3       0.26707    0.71675    0.54170   1.00
C2       0.25310    0.75445    0.39595   1.00
C2       0.25659    0.74981    0.60622   1.00
C3       0.23882    0.78592    0.41811   1.00
C3       0.24625    0.78397    0.58591   1.00
C3       0.26745    0.72197    0.41696   1.00
C3       0.26675    0.71700    0.58336   1.00
H1       0.22763    0.80854    0.47237   1.00
H1       0.23880    0.81102    0.53306   1.00
C5       0.28207    0.68536    0.47835   1.00
C5       0.27865    0.68291    0.51998   1.00
H1       0.22776    0.81022    0.40451   1.00
H1       0.23886    0.80884    0.60091   1.00
H1       0.27736    0.69934    0.40052   1.00
H1       0.27446    0.69266    0.59848   1.00
C6       0.30056    0.65262    0.45515   1.00
C6       0.28668    0.64498    0.54119   1.00
H2       0.32019    0.66507    0.43345   1.00
H2       0.26411    0.64037    0.56310   1.00
H2       0.32059    0.63556    0.47286   1.00
H2       0.28248    0.61986    0.52228   1.00
C6       0.26993    0.62451    0.43606   1.00
C6       0.32859    0.64304    0.55942   1.00
H2       0.24645    0.64165    0.42292   1.00
H2       0.33525    0.67071    0.57383   1.00
C6       0.28504    0.59505    0.40459   1.00
C6       0.33715    0.60939    0.58911   1.00
H2       0.25609    0.60790    0.45949   1.00
H2       0.34950    0.64080    0.53546   1.00
C6       0.29954    0.61632    0.36735   1.00
C6       0.31294    0.61401    0.62708   1.00
C6       0.31824    0.56896    0.42074   1.00
C6       0.32899    0.56875    0.57107   1.00
C6       0.25072    0.56807    0.39245   1.00
C6       0.38097    0.61106    0.60054   1.00
H2       0.27696    0.63549    0.35558   1.00
H2       0.31757    0.64269    0.64020   1.00
H2       0.32525    0.63402    0.37330   1.00
H2       0.28183    0.61072    0.62154   1.00
H2       0.30746    0.59551    0.34459   1.00
H2       0.32108    0.59203    0.64863   1.00
H2       0.32664    0.54671    0.39955   1.00
H2       0.33768    0.54545    0.59098   1.00
H2       0.34415    0.58622    0.42725   1.00
H2       0.29800    0.56502    0.56494   1.00
H2       0.30906    0.55427    0.44745   1.00
H2       0.34507    0.56506    0.54385   1.00
H2       0.22659    0.58505    0.38042   1.00
H2       0.38821    0.63910    0.61383   1.00
H2       0.25979    0.54708    0.37025   1.00
H2       0.38835    0.58822    0.62149   1.00
H2       0.23970    0.55162    0.41739   1.00
H2       0.39963    0.60717    0.57502   1.00
C4       0.25230    0.98025    0.25420   1.00
C4       0.25166    1.02191    0.25561   1.00
C3       0.28473    0.95897    0.23920   1.00
C3       0.28484    1.04504    0.24599   1.00
C3       0.21950    0.95854    0.26815   1.00
C3       0.21675    1.04170    0.26707   1.00
C2       0.25445    0.89595    0.25310   1.00
C2       0.24981    1.10622    0.25659   1.00
C3       0.28592    0.91811    0.23882   1.00
C3       0.28397    1.08591    0.24625   1.00
C3       0.22197    0.91696    0.26745   1.00
C3       0.21700    1.08336    0.26675   1.00
H1       0.30854    0.97237    0.22763   1.00
H1       0.31102    1.03306    0.23880   1.00
C5       0.18536    0.97835    0.28207   1.00
C5       0.18291    1.01998    0.27865   1.00
H1       0.31022    0.90451    0.22776   1.00
H1       0.30884    1.10091    0.23886   1.00
H1       0.19934    0.90052    0.27736   1.00
H1       0.19266    1.09848    0.27446   1.00
C6       0.15262    0.95515    0.30056   1.00
C6       0.14498    1.04119    0.28668   1.00
H2       0.16507    0.93345    0.32019   1.00
H2       0.14037    1.06310    0.26411   1.00
H2       0.13556    0.97286    0.32059   1.00
H2       0.11986    1.02228    0.28248   1.00
C6       0.12451    0.93606    0.26993   1.00
C6       0.14304    1.05942    0.32859   1.00
H2       0.14165    0.92292    0.24645   1.00
H2       0.17071    1.07383    0.33525   1.00
C6       0.09505    0.90459    0.28504   1.00
C6       0.10939    1.08911    0.33715   1.00
H2       0.10790    0.95949    0.25609   1.00
H2       0.14080    1.03546    0.34950   1.00
C6       0.11632    0.86735    0.29954   1.00
C6       0.11401    1.12708    0.31294   1.00
C6       0.06896    0.92074    0.31824   1.00
C6       0.06875    1.07107    0.32899   1.00
C6       0.06807    0.89245    0.25072   1.00
C6       0.11106    1.10054    0.38097   1.00
H2       0.13549    0.85558    0.27696   1.00
H2       0.14269    1.14020    0.31757   1.00
H2       0.13402    0.87330    0.32525   1.00
H2       0.11072    1.12154    0.28183   1.00
H2       0.09551    0.84459    0.30746   1.00
H2       0.09203    1.14863    0.32108   1.00
H2       0.04671    0.89955    0.32664   1.00
H2       0.04545    1.09098    0.33768   1.00
H2       0.08622    0.92725    0.34415   1.00
H2       0.06502    1.06494    0.29800   1.00
H2       0.05427    0.94745    0.30906   1.00
H2       0.06506    1.04385    0.34507   1.00
H2       0.08505    0.88042    0.22659   1.00
H2       0.13910    1.11383    0.38821   1.00
H2       0.04708    0.87025    0.25979   1.00
H2       0.08822    1.12149    0.38835   1.00
H2       0.05162    0.91739    0.23970   1.00
H2       0.10717    1.07502    0.39963   1.00
C4       0.01975    0.75420    0.24770   1.00
C4       -0.02191   0.75561    0.24834   1.00
C3       0.04103    0.73920    0.21527   1.00
C3       -0.04504   0.74599    0.21516   1.00
C3       0.04146    0.76815    0.28050   1.00
C3       -0.04170   0.76707    0.28325   1.00
C2       0.10405    0.75310    0.24555   1.00
C2       -0.10622   0.75659    0.25019   1.00
C3       0.08189    0.73882    0.21408   1.00
C3       -0.08591   0.74625    0.21603   1.00
C3       0.08304    0.76745    0.27803   1.00
C3       -0.08336   0.76675    0.28300   1.00
H1       0.02763    0.72763    0.19146   1.00
H1       -0.03306   0.73880    0.18898   1.00
C5       0.02165    0.78207    0.31464   1.00
C5       -0.01998   0.77865    0.31709   1.00
H1       0.09549    0.72776    0.18978   1.00
H1       -0.10091   0.73886    0.19116   1.00
H1       0.09948    0.77736    0.30066   1.00
H1       -0.09848   0.77446    0.30734   1.00
C6       0.04485    0.80056    0.34738   1.00
C6       -0.04119   0.78668    0.35502   1.00
H2       0.06655    0.82019    0.33493   1.00
H2       -0.06310   0.76411    0.35963   1.00
H2       0.02714    0.82059    0.36444   1.00
H2       -0.02228   0.78248    0.38014   1.00
C6       0.06394    0.76993    0.37549   1.00
C6       -0.05942   0.82859    0.35696   1.00
H2       0.07708    0.74645    0.35835   1.00
H2       -0.07383   0.83525    0.32929   1.00
C6       0.09541    0.78504    0.40495   1.00
C6       -0.08911   0.83715    0.39061   1.00
H2       0.04051    0.75609    0.39210   1.00
H2       -0.03546   0.84950    0.35920   1.00
C6       0.13265    0.79954    0.38368   1.00
C6       -0.12708   0.81294    0.38599   1.00
C6       0.07926    0.81824    0.43104   1.00
C6       -0.07107   0.82899    0.43125   1.00
C6       0.10755    0.75072    0.43193   1.00
C6       -0.10054   0.88097    0.38894   1.00
H2       0.14442    0.77696    0.36451   1.00
H2       -0.14020   0.81757    0.35731   1.00
H2       0.12670    0.82525    0.36598   1.00
H2       -0.12154   0.78183    0.38928   1.00
H2       0.15541    0.80746    0.40449   1.00
H2       -0.14863   0.82108    0.40797   1.00
H2       0.10045    0.82664    0.45329   1.00
H2       -0.09098   0.83768    0.45455   1.00
H2       0.07275    0.84415    0.41378   1.00
H2       -0.06494   0.79800    0.43498   1.00
H2       0.05255    0.80906    0.44573   1.00
H2       -0.04385   0.84507    0.43494   1.00
H2       0.11958    0.72659    0.41495   1.00
H2       -0.11383   0.88821    0.36090   1.00
H2       0.12975    0.75979    0.45292   1.00
H2       -0.12149   0.88835    0.41178   1.00
H2       0.08261    0.73970    0.44838   1.00
H2       -0.07502   0.89963    0.39283   1.00
C4       0.48025    0.75420    0.25230   1.00
C4       0.52191    0.75561    0.25166   1.00
C3       0.45897    0.73920    0.28473   1.00
C3       0.54504    0.74599    0.28484   1.00
C3       0.45854    0.76815    0.21950   1.00
C3       0.54170    0.76707    0.21675   1.00
C2       0.39595    0.75310    0.25445   1.00
C2       0.60622    0.75659    0.24981   1.00
C3       0.41811    0.73882    0.28592   1.00
C3       0.58591    0.74625    0.28397   1.00
C3       0.41696    0.76745    0.22197   1.00
C3       0.58336    0.76675    0.21700   1.00
H1       0.47237    0.72763    0.30854   1.00
H1       0.53306    0.73880    0.31102   1.00
C5       0.47835    0.78207    0.18536   1.00
C5       0.51998    0.77865    0.18291   1.00
H1       0.40451    0.72776    0.31022   1.00
H1       0.60091    0.73886    0.30884   1.00
H1       0.40052    0.77736    0.19934   1.00
H1       0.59848    0.77446    0.19266   1.00
C6       0.45515    0.80056    0.15262   1.00
C6       0.54119    0.78668    0.14498   1.00
H2       0.43345    0.82019    0.16507   1.00
H2       0.56310    0.76411    0.14037   1.00
H2       0.47286    0.82059    0.13556   1.00
H2       0.52228    0.78248    0.11986   1.00
C6       0.43606    0.76993    0.12451   1.00
C6       0.55942    0.82859    0.14304   1.00
H2       0.42292    0.74645    0.14165   1.00
H2       0.57383    0.83525    0.17071   1.00
C6       0.40459    0.78504    0.09505   1.00
C6       0.58911    0.83715    0.10939   1.00
H2       0.45949    0.75609    0.10790   1.00
H2       0.53546    0.84950    0.14080   1.00
C6       0.36735    0.79954    0.11632   1.00
C6       0.62708    0.81294    0.11401   1.00
C6       0.42074    0.81824    0.06896   1.00
C6       0.57107    0.82899    0.06875   1.00
C6       0.39245    0.75072    0.06807   1.00
C6       0.60054    0.88097    0.11106   1.00
H2       0.35558    0.77696    0.13549   1.00
H2       0.64020    0.81757    0.14269   1.00
H2       0.37330    0.82525    0.13402   1.00
H2       0.62154    0.78183    0.11072   1.00
H2       0.34459    0.80746    0.09551   1.00
H2       0.64863    0.82108    0.09203   1.00
H2       0.39955    0.82664    0.04671   1.00
H2       0.59098    0.83768    0.04545   1.00
H2       0.42725    0.84415    0.08622   1.00
H2       0.56494    0.79800    0.06502   1.00
H2       0.44745    0.80906    0.05427   1.00
H2       0.54385    0.84507    0.06506   1.00
H2       0.38042    0.72659    0.08505   1.00
H2       0.61383    0.88821    0.13910   1.00
H2       0.37025    0.75979    0.04708   1.00
H2       0.62149    0.88835    0.08822   1.00
H2       0.41739    0.73970    0.05162   1.00
H2       0.57502    0.89963    0.10717   1.00
C4       0.24770    0.51975    0.25420   1.00
C4       0.24834    0.47809    0.25561   1.00
C3       0.21527    0.54103    0.23920   1.00
C3       0.21516    0.45496    0.24599   1.00
C3       0.28050    0.54146    0.26815   1.00
C3       0.28325    0.45830    0.26707   1.00
C2       0.24555    0.60405    0.25310   1.00
C2       0.25019    0.39378    0.25659   1.00
C3       0.21408    0.58189    0.23882   1.00
C3       0.21603    0.41409    0.24625   1.00
C3       0.27803    0.58304    0.26745   1.00
C3       0.28300    0.41664    0.26675   1.00
H1       0.19146    0.52763    0.22763   1.00
H1       0.18898    0.46694    0.23880   1.00
C5       0.31464    0.52165    0.28207   1.00
C5       0.31709    0.48002    0.27865   1.00
H1       0.18978    0.59549    0.22776   1.00
H1       0.19116    0.39909    0.23886   1.00
H1       0.30066    0.59948    0.27736   1.00
H1       0.30734    0.40152    0.27446   1.00
C6       0.34738    0.54485    0.30056   1.00
C6       0.35502    0.45881    0.28668   1.00
H2       0.33493    0.56655    0.32019   1.00
H2       0.35963    0.43690    0.26411   1.00
H2       0.36444    0.52714    0.32059   1.00
H2       0.38014    0.47772    0.28248   1.00
C6       0.37549    0.56394    0.26993   1.00
C6       0.35696    0.44058    0.32859   1.00
H2       0.35835    0.57708    0.24645   1.00
H2       0.32929    0.42617    0.33525   1.00
C6       0.40495    0.59541    0.28504   1.00
C6       0.39061    0.41089    0.33715   1.00
H2       0.39210    0.54051    0.25609   1.00
H2       0.35920    0.46454    0.34950   1.00
C6       0.38368    0.63265    0.29954   1.00
C6       0.38599    0.37292    0.31294   1.00
C6       0.43104    0.57926    0.31824   1.00
C6       0.43125    0.42893    0.32899   1.00
C6       0.43193    0.60755    0.25072   1.00
C6       0.38894    0.39946    0.38097   1.00
H2       0.36451    0.64442    0.27696   1.00
H2       0.35731    0.35980    0.31757   1.00
H2       0.36598    0.62670    0.32525   1.00
H2       0.38928    0.37846    0.28183   1.00
H2       0.40449    0.65541    0.30746   1.00
H2       0.40797    0.35137    0.32108   1.00
H2       0.45329    0.60045    0.32664   1.00
H2       0.45455    0.40902    0.33768   1.00
H2       0.41378    0.57275    0.34415   1.00
H2       0.43498    0.43506    0.29800   1.00
H2       0.44573    0.55255    0.30906   1.00
H2       0.43494    0.45615    0.34507   1.00
H2       0.41495    0.61958    0.22659   1.00
H2       0.36090    0.38617    0.38821   1.00
H2       0.45292    0.62975    0.25979   1.00
H2       0.41178    0.37851    0.38835   1.00
H2       0.44838    0.58261    0.23970   1.00
H2       0.39283    0.42498    0.39963   1.00
C4       0.25420    0.74770    0.01975   1.00
C4       0.25561    0.74834    -0.02191   1.00
C3       0.23920    0.71527    0.04103   1.00
C3       0.24599    0.71516    -0.04504   1.00
C3       0.26815    0.78050    0.04146   1.00
C3       0.26707    0.78325    -0.04170   1.00
C2       0.25310    0.74555    0.10405   1.00
C2       0.25659    0.75019    -0.10622   1.00
C3       0.23882    0.71408    0.08189   1.00
C3       0.24625    0.71603    -0.08591   1.00
C3       0.26745    0.77803    0.08304   1.00
C3       0.26675    0.78300    -0.08336   1.00
H1       0.22763    0.69146    0.02763   1.00
H1       0.23880    0.68898    -0.03306   1.00
C5       0.28207    0.81464    0.02165   1.00
C5       0.27865    0.81709    -0.01998   1.00
H1       0.22776    0.68978    0.09549   1.00
H1       0.23886    0.69116    -0.10091   1.00
H1       0.27736    0.80066    0.09948   1.00
H1       0.27446    0.80734    -0.09848   1.00
C6       0.30056    0.84738    0.04485   1.00
C6       0.28668    0.85502    -0.04119   1.00
H2       0.32019    0.83493    0.06655   1.00
H2       0.26411    0.85963    -0.06310   1.00
H2       0.32059    0.86444    0.02714   1.00
H2       0.28248    0.88014    -0.02228   1.00
C6       0.26993    0.87549    0.06394   1.00
C6       0.32859    0.85696    -0.05942   1.00
H2       0.24645    0.85835    0.07708   1.00
H2       0.33525    0.82929    -0.07383   1.00
C6       0.28504    0.90495    0.09541   1.00
C6       0.33715    0.89061    -0.08911   1.00
H2       0.25609    0.89210    0.04051   1.00
H2       0.34950    0.85920    -0.03546   1.00
C6       0.29954    0.88368    0.13265   1.00
C6       0.31294    0.88599    -0.12708   1.00
C6       0.31824    0.93104    0.07926   1.00
C6       0.32899    0.93125    -0.07107   1.00
C6       0.25072    0.93193    0.10755   1.00
C6       0.38097    0.88894    -0.10054   1.00
H2       0.27696    0.86451    0.14442   1.00
H2       0.31757    0.85731    -0.14020   1.00
H2       0.32525    0.86598    0.12670   1.00
H2       0.28183    0.88928    -0.12154   1.00
H2       0.30746    0.90449    0.15541   1.00
H2       0.32108    0.90797    -0.14863   1.00
H2       0.32664    0.95329    0.10045   1.00
H2       0.33768    0.95455    -0.09098   1.00
H2       0.34415    0.91378    0.07275   1.00
H2       0.29800    0.93498    -0.06494   1.00
H2       0.30906    0.94573    0.05255   1.00
H2       0.34507    0.93494    -0.04385   1.00
H2       0.22659    0.91495    0.11958   1.00
H2       0.38821    0.86090    -0.11383   1.00
H2       0.25979    0.95292    0.12975   1.00
H2       0.38835    0.91178    -0.12149   1.00
H2       0.23970    0.94838    0.08261   1.00
H2       0.39963    0.89283    -0.07502   1.00
C4       0.75420    0.25230    0.48025   1.00
C4       0.75561    0.25166    0.52191   1.00
C3       0.73920    0.28473    0.45897   1.00
C3       0.74599    0.28484    0.54504   1.00
C3       0.76815    0.21950    0.45854   1.00
C3       0.76707    0.21675    0.54170   1.00
C2       0.75310    0.25445    0.39595   1.00
C2       0.75659    0.24981    0.60622   1.00
C3       0.73882    0.28592    0.41811   1.00
C3       0.74625    0.28397    0.58591   1.00
C3       0.76745    0.22197    0.41696   1.00
C3       0.76675    0.21700    0.58336   1.00
H1       0.72763    0.30854    0.47237   1.00
H1       0.73880    0.31102    0.53306   1.00
C5       0.78207    0.18536    0.47835   1.00
C5       0.77865    0.18291    0.51998   1.00
H1       0.72776    0.31022    0.40451   1.00
H1       0.73886    0.30884    0.60091   1.00
H1       0.77736    0.19934    0.40052   1.00
H1       0.77446    0.19266    0.59848   1.00
C6       0.80056    0.15262    0.45515   1.00
C6       0.78668    0.14498    0.54119   1.00
H2       0.82019    0.16507    0.43345   1.00
H2       0.76411    0.14037    0.56310   1.00
H2       0.82059    0.13556    0.47286   1.00
H2       0.78248    0.11986    0.52228   1.00
C6       0.76993    0.12451    0.43606   1.00
C6       0.82859    0.14304    0.55942   1.00
H2       0.74645    0.14165    0.42292   1.00
H2       0.83525    0.17071    0.57383   1.00
C6       0.78504    0.09505    0.40459   1.00
C6       0.83715    0.10939    0.58911   1.00
H2       0.75609    0.10790    0.45949   1.00
H2       0.84950    0.14080    0.53546   1.00
C6       0.79954    0.11632    0.36735   1.00
C6       0.81294    0.11401    0.62708   1.00
C6       0.81824    0.06896    0.42074   1.00
C6       0.82899    0.06875    0.57107   1.00
C6       0.75072    0.06807    0.39245   1.00
C6       0.88097    0.11106    0.60054   1.00
H2       0.77696    0.13549    0.35558   1.00
H2       0.81757    0.14269    0.64020   1.00
H2       0.82525    0.13402    0.37330   1.00
H2       0.78183    0.11072    0.62154   1.00
H2       0.80746    0.09551    0.34459   1.00
H2       0.82108    0.09203    0.64863   1.00
H2       0.82664    0.04671    0.39955   1.00
H2       0.83768    0.04545    0.59098   1.00
H2       0.84415    0.08622    0.42725   1.00
H2       0.79800    0.06502    0.56494   1.00
H2       0.80906    0.05427    0.44745   1.00
H2       0.84507    0.06506    0.54385   1.00
H2       0.72659    0.08505    0.38042   1.00
H2       0.88821    0.13910    0.61383   1.00
H2       0.75979    0.04708    0.37025   1.00
H2       0.88835    0.08822    0.62149   1.00
H2       0.73970    0.05162    0.41739   1.00
H2       0.89963    0.10717    0.57502   1.00
C4       0.75230    0.48025    0.25420   1.00
C4       0.75166    0.52191    0.25561   1.00
C3       0.78473    0.45897    0.23920   1.00
C3       0.78484    0.54504    0.24599   1.00
C3       0.71950    0.45854    0.26815   1.00
C3       0.71675    0.54170    0.26707   1.00
C2       0.75445    0.39595    0.25310   1.00
C2       0.74981    0.60622    0.25659   1.00
C3       0.78592    0.41811    0.23882   1.00
C3       0.78397    0.58591    0.24625   1.00
C3       0.72197    0.41696    0.26745   1.00
C3       0.71700    0.58336    0.26675   1.00
H1       0.80854    0.47237    0.22763   1.00
H1       0.81102    0.53306    0.23880   1.00
C5       0.68536    0.47835    0.28207   1.00
C5       0.68291    0.51998    0.27865   1.00
H1       0.81022    0.40451    0.22776   1.00
H1       0.80884    0.60091    0.23886   1.00
H1       0.69934    0.40052    0.27736   1.00
H1       0.69266    0.59848    0.27446   1.00
C6       0.65262    0.45515    0.30056   1.00
C6       0.64498    0.54119    0.28668   1.00
H2       0.66507    0.43345    0.32019   1.00
H2       0.64037    0.56310    0.26411   1.00
H2       0.63556    0.47286    0.32059   1.00
H2       0.61986    0.52228    0.28248   1.00
C6       0.62451    0.43606    0.26993   1.00
C6       0.64304    0.55942    0.32859   1.00
H2       0.64165    0.42292    0.24645   1.00
H2       0.67071    0.57383    0.33525   1.00
C6       0.59505    0.40459    0.28504   1.00
C6       0.60939    0.58911    0.33715   1.00
H2       0.60790    0.45949    0.25609   1.00
H2       0.64080    0.53546    0.34950   1.00
C6       0.61632    0.36735    0.29954   1.00
C6       0.61401    0.62708    0.31294   1.00
C6       0.56896    0.42074    0.31824   1.00
C6       0.56875    0.57107    0.32899   1.00
C6       0.56807    0.39245    0.25072   1.00
C6       0.61106    0.60054    0.38097   1.00
H2       0.63549    0.35558    0.27696   1.00
H2       0.64269    0.64020    0.31757   1.00
H2       0.63402    0.37330    0.32525   1.00
H2       0.61072    0.62154    0.28183   1.00
H2       0.59551    0.34459    0.30746   1.00
H2       0.59203    0.64863    0.32108   1.00
H2       0.54671    0.39955    0.32664   1.00
H2       0.54545    0.59098    0.33768   1.00
H2       0.58622    0.42725    0.34415   1.00
H2       0.56502    0.56494    0.29800   1.00
H2       0.55427    0.44745    0.30906   1.00
H2       0.56506    0.54385    0.34507   1.00
H2       0.58505    0.38042    0.22659   1.00
H2       0.63910    0.61383    0.38821   1.00
H2       0.54708    0.37025    0.25979   1.00
H2       0.58822    0.62149    0.38835   1.00
H2       0.55162    0.41739    0.23970   1.00
H2       0.60717    0.57502    0.39963   1.00
C4       0.51975    0.25420    0.24770   1.00
C4       0.47809    0.25561    0.24834   1.00
C3       0.54103    0.23920    0.21527   1.00
C3       0.45496    0.24599    0.21516   1.00
C3       0.54146    0.26815    0.28050   1.00
C3       0.45830    0.26707    0.28325   1.00
C2       0.60405    0.25310    0.24555   1.00
C2       0.39378    0.25659    0.25019   1.00
C3       0.58189    0.23882    0.21408   1.00
C3       0.41409    0.24625    0.21603   1.00
C3       0.58304    0.26745    0.27803   1.00
C3       0.41664    0.26675    0.28300   1.00
H1       0.52763    0.22763    0.19146   1.00
H1       0.46694    0.23880    0.18898   1.00
C5       0.52165    0.28207    0.31464   1.00
C5       0.48002    0.27865    0.31709   1.00
H1       0.59549    0.22776    0.18978   1.00
H1       0.39909    0.23886    0.19116   1.00
H1       0.59948    0.27736    0.30066   1.00
H1       0.40152    0.27446    0.30734   1.00
C6       0.54485    0.30056    0.34738   1.00
C6       0.45881    0.28668    0.35502   1.00
H2       0.56655    0.32019    0.33493   1.00
H2       0.43690    0.26411    0.35963   1.00
H2       0.52714    0.32059    0.36444   1.00
H2       0.47772    0.28248    0.38014   1.00
C6       0.56394    0.26993    0.37549   1.00
C6       0.44058    0.32859    0.35696   1.00
H2       0.57708    0.24645    0.35835   1.00
H2       0.42617    0.33525    0.32929   1.00
C6       0.59541    0.28504    0.40495   1.00
C6       0.41089    0.33715    0.39061   1.00
H2       0.54051    0.25609    0.39210   1.00
H2       0.46454    0.34950    0.35920   1.00
C6       0.63265    0.29954    0.38368   1.00
C6       0.37292    0.31294    0.38599   1.00
C6       0.57926    0.31824    0.43104   1.00
C6       0.42893    0.32899    0.43125   1.00
C6       0.60755    0.25072    0.43193   1.00
C6       0.39946    0.38097    0.38894   1.00
H2       0.64442    0.27696    0.36451   1.00
H2       0.35980    0.31757    0.35731   1.00
H2       0.62670    0.32525    0.36598   1.00
H2       0.37846    0.28183    0.38928   1.00
H2       0.65541    0.30746    0.40449   1.00
H2       0.35137    0.32108    0.40797   1.00
H2       0.60045    0.32664    0.45329   1.00
H2       0.40902    0.33768    0.45455   1.00
H2       0.57275    0.34415    0.41378   1.00
H2       0.43506    0.29800    0.43498   1.00
H2       0.55255    0.30906    0.44573   1.00
H2       0.45615    0.34507    0.43494   1.00
H2       0.61958    0.22659    0.41495   1.00
H2       0.38617    0.38821    0.36090   1.00
H2       0.62975    0.25979    0.45292   1.00
H2       0.37851    0.38835    0.41178   1.00
H2       0.58261    0.23970    0.44838   1.00
H2       0.42498    0.39963    0.39283   1.00
C4       0.98025    0.25420    0.25230   1.00
C4       1.02191    0.25561    0.25166   1.00
C3       0.95897    0.23920    0.28473   1.00
C3       1.04504    0.24599    0.28484   1.00
C3       0.95854    0.26815    0.21950   1.00
C3       1.04170    0.26707    0.21675   1.00
C2       0.89595    0.25310    0.25445   1.00
C2       1.10622    0.25659    0.24981   1.00
C3       0.91811    0.23882    0.28592   1.00
C3       1.08591    0.24625    0.28397   1.00
C3       0.91696    0.26745    0.22197   1.00
C3       1.08336    0.26675    0.21700   1.00
H1       0.97237    0.22763    0.30854   1.00
H1       1.03306    0.23880    0.31102   1.00
C5       0.97835    0.28207    0.18536   1.00
C5       1.01998    0.27865    0.18291   1.00
H1       0.90451    0.22776    0.31022   1.00
H1       1.10091    0.23886    0.30884   1.00
H1       0.90052    0.27736    0.19934   1.00
H1       1.09848    0.27446    0.19266   1.00
C6       0.95515    0.30056    0.15262   1.00
C6       1.04119    0.28668    0.14498   1.00
H2       0.93345    0.32019    0.16507   1.00
H2       1.06310    0.26411    0.14037   1.00
H2       0.97286    0.32059    0.13556   1.00
H2       1.02228    0.28248    0.11986   1.00
C6       0.93606    0.26993    0.12451   1.00
C6       1.05942    0.32859    0.14304   1.00
H2       0.92292    0.24645    0.14165   1.00
H2       1.07383    0.33525    0.17071   1.00
C6       0.90459    0.28504    0.09505   1.00
C6       1.08911    0.33715    0.10939   1.00
H2       0.95949    0.25609    0.10790   1.00
H2       1.03546    0.34950    0.14080   1.00
C6       0.86735    0.29954    0.11632   1.00
C6       1.12708    0.31294    0.11401   1.00
C6       0.92074    0.31824    0.06896   1.00
C6       1.07107    0.32899    0.06875   1.00
C6       0.89245    0.25072    0.06807   1.00
C6       1.10054    0.38097    0.11106   1.00
H2       0.85558    0.27696    0.13549   1.00
H2       1.14020    0.31757    0.14269   1.00
H2       0.87330    0.32525    0.13402   1.00
H2       1.12154    0.28183    0.11072   1.00
H2       0.84459    0.30746    0.09551   1.00
H2       1.14863    0.32108    0.09203   1.00
H2       0.89955    0.32664    0.04671   1.00
H2       1.09098    0.33768    0.04545   1.00
H2       0.92725    0.34415    0.08622   1.00
H2       1.06494    0.29800    0.06502   1.00
H2       0.94745    0.30906    0.05427   1.00
H2       1.04385    0.34507    0.06506   1.00
H2       0.88042    0.22659    0.08505   1.00
H2       1.11383    0.38821    0.13910   1.00
H2       0.87025    0.25979    0.04708   1.00
H2       1.12149    0.38835    0.08822   1.00
H2       0.91739    0.23970    0.05162   1.00
H2       1.07502    0.39963    0.10717   1.00
C4       0.74770    0.01975    0.25420   1.00
C4       0.74834    -0.02191   0.25561   1.00
C3       0.71527    0.04103    0.23920   1.00
C3       0.71516    -0.04504   0.24599   1.00
C3       0.78050    0.04146    0.26815   1.00
C3       0.78325    -0.04170   0.26707   1.00
C2       0.74555    0.10405    0.25310   1.00
C2       0.75019    -0.10622   0.25659   1.00
C3       0.71408    0.08189    0.23882   1.00
C3       0.71603    -0.08591   0.24625   1.00
C3       0.77803    0.08304    0.26745   1.00
C3       0.78300    -0.08336   0.26675   1.00
H1       0.69146    0.02763    0.22763   1.00
H1       0.68898    -0.03306   0.23880   1.00
C5       0.81464    0.02165    0.28207   1.00
C5       0.81709    -0.01998   0.27865   1.00
H1       0.68978    0.09549    0.22776   1.00
H1       0.69116    -0.10091   0.23886   1.00
H1       0.80066    0.09948    0.27736   1.00
H1       0.80734    -0.09848   0.27446   1.00
C6       0.84738    0.04485    0.30056   1.00
C6       0.85502    -0.04119   0.28668   1.00
H2       0.83493    0.06655    0.32019   1.00
H2       0.85963    -0.06310   0.26411   1.00
H2       0.86444    0.02714    0.32059   1.00
H2       0.88014    -0.02228   0.28248   1.00
C6       0.87549    0.06394    0.26993   1.00
C6       0.85696    -0.05942   0.32859   1.00
H2       0.85835    0.07708    0.24645   1.00
H2       0.82929    -0.07383   0.33525   1.00
C6       0.90495    0.09541    0.28504   1.00
C6       0.89061    -0.08911   0.33715   1.00
H2       0.89210    0.04051    0.25609   1.00
H2       0.85920    -0.03546   0.34950   1.00
C6       0.88368    0.13265    0.29954   1.00
C6       0.88599    -0.12708   0.31294   1.00
C6       0.93104    0.07926    0.31824   1.00
C6       0.93125    -0.07107   0.32899   1.00
C6       0.93193    0.10755    0.25072   1.00
C6       0.88894    -0.10054   0.38097   1.00
H2       0.86451    0.14442    0.27696   1.00
H2       0.85731    -0.14020   0.31757   1.00
H2       0.86598    0.12670    0.32525   1.00
H2       0.88928    -0.12154   0.28183   1.00
H2       0.90449    0.15541    0.30746   1.00
H2       0.90797    -0.14863   0.32108   1.00
H2       0.95329    0.10045    0.32664   1.00
H2       0.95455    -0.09098   0.33768   1.00
H2       0.91378    0.07275    0.34415   1.00
H2       0.93498    -0.06494   0.29800   1.00
H2       0.94573    0.05255    0.30906   1.00
H2       0.93494    -0.04385   0.34507   1.00
H2       0.91495    0.11958    0.22659   1.00
H2       0.86090    -0.11383   0.38821   1.00
H2       0.95292    0.12975    0.25979   1.00
H2       0.91178    -0.12149   0.38835   1.00
H2       0.94838    0.08261    0.23970   1.00
H2       0.89283    -0.07502   0.39963   1.00
C4       0.75420    0.24770    0.01975   1.00
C4       0.75561    0.24834    -0.02191   1.00
C3       0.73920    0.21527    0.04103   1.00
C3       0.74599    0.21516    -0.04504   1.00
C3       0.76815    0.28050    0.04146   1.00
C3       0.76707    0.28325    -0.04170   1.00
C2       0.75310    0.24555    0.10405   1.00
C2       0.75659    0.25019    -0.10622   1.00
C3       0.73882    0.21408    0.08189   1.00
C3       0.74625    0.21603    -0.08591   1.00
C3       0.76745    0.27803    0.08304   1.00
C3       0.76675    0.28300    -0.08336   1.00
H1       0.72763    0.19146    0.02763   1.00
H1       0.73880    0.18898    -0.03306   1.00
C5       0.78207    0.31464    0.02165   1.00
C5       0.77865    0.31709    -0.01998   1.00
H1       0.72776    0.18978    0.09549   1.00
H1       0.73886    0.19116    -0.10091   1.00
H1       0.77736    0.30066    0.09948   1.00
H1       0.77446    0.30734    -0.09848   1.00
C6       0.80056    0.34738    0.04485   1.00
C6       0.78668    0.35502    -0.04119   1.00
H2       0.82019    0.33493    0.06655   1.00
H2       0.76411    0.35963    -0.06310   1.00
H2       0.82059    0.36444    0.02714   1.00
H2       0.78248    0.38014    -0.02228   1.00
C6       0.76993    0.37549    0.06394   1.00
C6       0.82859    0.35696    -0.05942   1.00
H2       0.74645    0.35835    0.07708   1.00
H2       0.83525    0.32929    -0.07383   1.00
C6       0.78504    0.40495    0.09541   1.00
C6       0.83715    0.39061    -0.08911   1.00
H2       0.75609    0.39210    0.04051   1.00
H2       0.84950    0.35920    -0.03546   1.00
C6       0.79954    0.38368    0.13265   1.00
C6       0.81294    0.38599    -0.12708   1.00
C6       0.81824    0.43104    0.07926   1.00
C6       0.82899    0.43125    -0.07107   1.00
C6       0.75072    0.43193    0.10755   1.00
C6       0.88097    0.38894    -0.10054   1.00
H2       0.77696    0.36451    0.14442   1.00
H2       0.81757    0.35731    -0.14020   1.00
H2       0.82525    0.36598    0.12670   1.00
H2       0.78183    0.38928    -0.12154   1.00
H2       0.80746    0.40449    0.15541   1.00
H2       0.82108    0.40797    -0.14863   1.00
H2       0.82664    0.45329    0.10045   1.00
H2       0.83768    0.45455    -0.09098   1.00
H2       0.84415    0.41378    0.07275   1.00
H2       0.79800    0.43498    -0.06494   1.00
H2       0.80906    0.44573    0.05255   1.00
H2       0.84507    0.43494    -0.04385   1.00
H2       0.72659    0.41495    0.11958   1.00
H2       0.88821    0.36090    -0.11383   1.00
H2       0.75979    0.45292    0.12975   1.00
H2       0.88835    0.41178    -0.12149   1.00
H2       0.73970    0.44838    0.08261   1.00
H2       0.89963    0.39283    -0.07502   1.00
